Circuit: * C:\Users\mjong\Documents\Projekte\Radar_Amp\Simulation\Input_Stage_10kHz_v2.asc

Early termination of direct N-R iteration.
Direct Newton iteration failed to find .op point.  (Use ".option noopiter" to skip.)
Starting Gmin stepping
Gmin = 10
Gmin = 1.07374
Gmin = 0.115292
Gmin = 0.0123794
Gmin = 0.00132923
vernier = 0.5
vernier = 0.25
vernier = 0.125
vernier = 0.0625
vernier = 0.03125
vernier = 0.015625
vernier = 0.0078125
vernier = 0.00390625
Gmin = 0.00106338
vernier = 0.00195312
vernier = 0.000976562
vernier = 0.000488281
Gmin = 0
Gmin stepping succeeded in finding the operating point.


Date: Sat Jul 15 18:29:35 2023
Total elapsed time: 0.222 seconds.

tnom = 27
temp = 27
method = trap
totiter = 1362
traniter = 0
tranpoints = 0
accept = 0
rejected = 0
matrix size = 114
fillins = 187
solver = Normal
Avg thread counts: 3.0/0.0/8.0/2.5
Matrix Compiler1:    1056 opcodes
Matrix Compiler2: off  [1.5]/2.3/2.2

