Circuit: * C:\Users\mjong\Documents\Projekte\Radar_Amp\Simulation\NPN+Filter.asc

Warning: Multiple definitions of model "2scr375p" Type: BJT
Warning: Multiple definitions of model "bc857b" Type: BJT
Warning: Multiple definitions of model "bc847c" Type: BJT
Warning: Multiple definitions of model "bc847b" Type: BJT
Direct Newton iteration failed to find .op point.  (Use ".option noopiter" to skip.)
Starting Gmin stepping
Gmin = 10
Gmin = 1.07374
Gmin = 0.115292
Gmin = 0.0123794
Gmin = 0.00132923
vernier = 0.5
vernier = 0.25
vernier = 0.125
vernier = 0.0625
vernier = 0.03125
vernier = 0.015625
vernier = 0.0078125
vernier = 0.00390625
Gmin = 0.00106338
vernier = 0.00195312
vernier = 0.000976562
vernier = 0.000488281
Gmin = 0
Gmin stepping failed

Starting source stepping with srcstepmethod=0
Source Step = 3.0303%
Source Step = 33.3333%
Source Step = 54.7348%
vernier = 0.015625
Source Step = 54.652%
Source Step = 54.7704%
Source Step = 54.8887%
Source Step = 55.0071%
Source Step = 55.1255%
vernier = 0.00585938
Source Step = 55.2912%
Source Step = 55.4687%
Source Step = 55.6463%
Source Step = 55.8239%
Source Step = 56.0014%
vernier = 0.00878906
Source Step = 56.2411%
Source Step = 56.5075%
Source Step = 56.7738%
Source Step = 57.0401%
Source Step = 57.3065%
vernier = 0.0131836
Source Step = 57.6527%
Source Step = 58.0522%
Source Step = 58.4517%
Source Step = 58.8512%
Source Step = 59.2507%
vernier = 0.0197754
Source Step = 59.7501%
Source Step = 60.3493%
Source Step = 60.9486%
Source Step = 61.5479%
Source Step = 62.1471%
vernier = 0.0296631
Source Step = 62.8662%
Source Step = 63.7651%
Source Step = 64.664%
Source Step = 65.5629%
Source Step = 66.4617%
vernier = 0.0444946
Source Step = 67.4955%
Source Step = 68.8438%
Source Step = 70.1921%
Source Step = 71.5404%
Source Step = 72.8887%
vernier = 0.0667419
Source Step = 74.3719%
Source Step = 76.3944%
Source Step = 78.4169%
Source Step = 80.4393%
Source Step = 82.4618%
vernier = 0.100113
Source Step = 84.5854%
Source Step = 87.6192%
Source Step = 90.6529%
Source Step = 93.6866%
Source Step = 96.7203%
Source Step = 99.7541%
vernier = 0.150169
Source stepping succeeded in finding the operating point.


Date: Sun Jul 23 13:29:04 2023
Total elapsed time: 1.093 seconds.

tnom = 27
temp = 27
method = trap
totiter = 3687
traniter = 0
tranpoints = 0
accept = 0
rejected = 0
matrix size = 141
fillins = 320
solver = Normal
Avg thread counts: 2.5/0.0/5.4/1.6
Matrix Compiler1:    1668 opcodes
Matrix Compiler2: 18.28 KB object code size  6.6/8.5/[2.7]

