Circuit: * C:\Users\mjong\Documents\Projekte\Radar_Amp\Simulation\NPN.asc

Warning: Multiple definitions of model "2scr375p" Type: BJT
Warning: Multiple definitions of model "bc857b" Type: BJT
Warning: Multiple definitions of model "bc847c" Type: BJT
Warning: Multiple definitions of model "bc847b" Type: BJT
Direct Newton iteration for .op point succeeded.

Date: Sun Jul 30 10:01:00 2023
Total elapsed time: 0.208 seconds.

tnom = 27
temp = 27
method = trap
totiter = 9
traniter = 0
tranpoints = 0
accept = 0
rejected = 0
matrix size = 363
fillins = 407
solver = Normal
Avg thread counts: 8.0/0.0/8.0/5.5
Matrix Compiler1:    2005 opcodes
Matrix Compiler2: 41.24 KB object code size
