Circuit: * C:\Users\mjong\Documents\Projekte\Radar_Amp_v2\Simulation\VGA_TIA_Potentiometer.asc

Direct Newton iteration for .op point succeeded.

Date: Tue Aug  1 19:01:37 2023
Total elapsed time: 0.140 seconds.

tnom = 27
temp = 27
method = trap
totiter = 3
traniter = 0
tranpoints = 0
accept = 0
rejected = 0
matrix size = 144
fillins = 112
solver = Normal
Avg thread counts: 8.0/0.0/8.0/5.1
Matrix Compiler1:     632 opcodes
Matrix Compiler2: 15.27 KB object code size
