Circuit: * C:\Users\mjong\Documents\Projekte\Radar_Amp\Simulation\AD_Filter_Designer__10kHz\ACAnalysis.asc

Early termination of direct N-R iteration.
Direct Newton iteration failed to find .op point.  (Use ".option noopiter" to skip.)
Starting Gmin stepping
Gmin = 10
Gmin = 1.07374
Gmin = 0.115292
Gmin = 0.0123794
Gmin = 0.00132923
Gmin = 0.000142725
Gmin = 1.5325e-05
Gmin = 1.6455e-06
Gmin = 1.76685e-07
Gmin = 1.89714e-08
vernier = 0.5
vernier = 0.25
vernier = 0.125
vernier = 0.0625
Gmin = 1.42645e-08
vernier = 0.0833333
vernier = 0.0416667
vernier = 0.0208333
vernier = 0.0104167
Gmin = 1.3134e-08
vernier = 0.0138889
vernier = 0.0185185
Gmin = 1.27049e-08
vernier = 0.00925925
Gmin = 1.23575e-08
vernier = 0.0123457
vernier = 0.0164609
Gmin = 1.19549e-08
vernier = 0.0219478
vernier = 0.0109739
Gmin = 1.16479e-08
vernier = 0.0146319
vernier = 0.0195092
vernier = 0.00975459
Gmin = 1.13401e-08
vernier = 0.0130061
vernier = 0.0173415
Gmin = 1.09927e-08
vernier = 0.00867074
vernier = 0.011561
Gmin = 1.07961e-08
vernier = 0.0154146
vernier = 0.00770732
Gmin = 1.05498e-08
vernier = 0.0102764
vernier = 0.0137019
Gmin = 1.02781e-08
vernier = 0.0182692
vernier = 0.0091346
vernier = 0.0045673
vernier = 0.00228365
vernier = 0.00114182
Gmin = 1.01356e-08
vernier = 0.00152243
Gmin = 1.0101e-08
vernier = 0.00202991
vernier = 0.00270655
Gmin = 1.0043e-08
vernier = 0.00360873
vernier = 0.00481163
Gmin = 9.95139e-09
vernier = 0.00641551
Gmin = 9.80888e-09
vernier = 0.00855401
vernier = 0.0114053
Gmin = 9.57429e-09
vernier = 0.0152071
vernier = 0.00760356
vernier = 0.0101381
Gmin = 9.40612e-09
vernier = 0.0135174
vernier = 0.00675872
Gmin = 9.2409e-09
vernier = 0.00901162
vernier = 0.0120155
Gmin = 9.03189e-09
vernier = 0.0160207
vernier = 0.00801033
vernier = 0.00400516
Gmin = 8.89742e-09
vernier = 0.00534022
vernier = 0.00712029
Gmin = 8.77756e-09
vernier = 0.00949371
Gmin = 8.59225e-09
vernier = 0.0126583
vernier = 0.00632914
vernier = 0.00843885
Gmin = 8.47086e-09
vernier = 0.0112518
vernier = 0.0150024
Gmin = 8.24587e-09
vernier = 0.0075012
vernier = 0.0100016
Gmin = 8.11813e-09
vernier = 0.0133355
vernier = 0.00666773
vernier = 0.0088903
Gmin = 7.99293e-09
vernier = 0.0118537
vernier = 0.00592687
Gmin = 7.86966e-09
vernier = 0.00790249
vernier = 0.0105366
Gmin = 7.71333e-09
vernier = 0.0140489
vernier = 0.00702443
vernier = 0.00351222
Gmin = 7.61252e-09
vernier = 0.00468295
vernier = 0.00624394
Gmin = 7.5225e-09
vernier = 0.00832524
Gmin = 7.38304e-09
vernier = 0.0111003
vernier = 0.00555016
vernier = 0.00740021
Gmin = 7.29148e-09
vernier = 0.00986695
vernier = 0.0131559
Gmin = 7.12134e-09
vernier = 0.00657796
vernier = 0.00877062
Gmin = 7.02449e-09
vernier = 0.0116942
vernier = 0.00584708
vernier = 0.00292354
Gmin = 6.96829e-09
vernier = 0.00389805
vernier = 0.0051974
Gmin = 6.89179e-09
vernier = 0.00692986
vernier = 0.00923982
Gmin = 6.77158e-09
vernier = 0.0123198
vernier = 0.00615988
Gmin = 6.6682e-09
vernier = 0.00821317
vernier = 0.0109509
vernier = 0.00547544
vernier = 0.00273772
Gmin = 6.57651e-09
vernier = 0.00365029
Gmin = 6.52422e-09
vernier = 0.00486706
vernier = 0.00648941
Gmin = 6.4395e-09
vernier = 0.00865254
vernier = 0.0115367
Gmin = 6.30752e-09
vernier = 0.00576836
vernier = 0.00288418
vernier = 0.00384557
Gmin = 6.28481e-09
vernier = 0.00512743
vernier = 0.00683657
Gmin = 6.20813e-09
vernier = 0.00911542
vernier = 0.00455771
Gmin = 6.13435e-09
vernier = 0.00607695
vernier = 0.00810259
Gmin = 6.0404e-09
vernier = 0.0108035
vernier = 0.00540173
Gmin = 5.95945e-09
vernier = 0.0072023
vernier = 0.00960307
vernier = 0.00480153
Gmin = 5.88046e-09
vernier = 0.00640204
Gmin = 5.79643e-09
vernier = 0.00853606
vernier = 0.00426803
vernier = 0.0056907
Gmin = 5.74106e-09
vernier = 0.0075876
vernier = 0.0101168
Gmin = 5.63774e-09
vernier = 0.0050584
vernier = 0.00674453
Gmin = 5.57867e-09
vernier = 0.00899271
vernier = 0.00449635
vernier = 0.00599514
Gmin = 5.52049e-09
vernier = 0.00799351
vernier = 0.00399676
Gmin = 5.46291e-09
vernier = 0.00532901
vernier = 0.00710534
Gmin = 5.38947e-09
vernier = 0.00947379
vernier = 0.00473689
Gmin = 5.32607e-09
vernier = 0.00631586
vernier = 0.00842114
vernier = 0.00421057
Gmin = 5.26411e-09
vernier = 0.00561409
Gmin = 5.19808e-09
vernier = 0.00748545
vernier = 0.0099806
vernier = 0.0049903
Gmin = 5.12729e-09
vernier = 0.00665373
vernier = 0.00887164
Gmin = 5.04627e-09
vernier = 0.00443582
vernier = 0.00591443
Gmin = 4.99987e-09
vernier = 0.0078859
vernier = 0.00394295
vernier = 0.00525726
Gmin = 4.95411e-09
vernier = 0.00700968
Gmin = 4.87879e-09
vernier = 0.00934624
vernier = 0.00467312
vernier = 0.00623083
Gmin = 4.82685e-09
vernier = 0.00830777
vernier = 0.00415388
Gmin = 4.77702e-09
vernier = 0.00553851
vernier = 0.00738468
Gmin = 4.70649e-09
vernier = 0.00984624
vernier = 0.0131283
Gmin = 4.5969e-09
vernier = 0.0175044
Gmin = 4.42454e-09
vernier = 0.0233392
vernier = 0.0116696
vernier = 0.0155595
Gmin = 4.30798e-09
vernier = 0.020746
vernier = 0.010373
Gmin = 4.19788e-09
vernier = 0.0138306
vernier = 0.0184408
Gmin = 4.045e-09
vernier = 0.0245878
vernier = 0.0122939
Gmin = 3.92882e-09
vernier = 0.0163918
vernier = 0.0218558
vernier = 0.0109279
Gmin = 3.81273e-09
vernier = 0.0145705
vernier = 0.0194274
Gmin = 3.68216e-09
vernier = 0.00971368
vernier = 0.0129516
Gmin = 3.60848e-09
vernier = 0.0172688
vernier = 0.023025
vernier = 0.0115125
Gmin = 3.49374e-09
vernier = 0.01535
Gmin = 3.37857e-09
vernier = 0.0204667
vernier = 0.0102333
vernier = 0.00511666
vernier = 0.00682222
Gmin = 3.33851e-09
vernier = 0.00341111
vernier = 0.00454814
Gmin = 3.31488e-09
vernier = 0.00606419
vernier = 0.0030321
vernier = 0.00404279
Gmin = 3.29152e-09
vernier = 0.00539039
vernier = 0.00269519
Gmin = 3.26833e-09
vernier = 0.00359359
vernier = 0.00479145
Gmin = 3.23863e-09
vernier = 0.0063886
vernier = 0.0031943
Gmin = 3.21288e-09
vernier = 0.00425907
vernier = 0.00567876
vernier = 0.00283938
Gmin = 3.18762e-09
vernier = 0.00378584
Gmin = 3.1606e-09
vernier = 0.00504778
vernier = 0.00252389
vernier = 0.00336519
Gmin = 3.14271e-09
vernier = 0.00448691
vernier = 0.00598255
Gmin = 3.10912e-09
vernier = 0.00299128
vernier = 0.00398837
Gmin = 3.08981e-09
vernier = 0.00531782
vernier = 0.00265891
vernier = 0.00354521
Gmin = 3.07071e-09
vernier = 0.00472695
Gmin = 3.03914e-09
vernier = 0.0063026
vernier = 0.0031513
vernier = 0.00420173
Gmin = 3.01728e-09
vernier = 0.00560231
vernier = 0.00280115
Gmin = 2.99623e-09
vernier = 0.00373487
vernier = 0.00497983
vernier = 0.00248991
Gmin = 2.97557e-09
vernier = 0.00331988
Gmin = 2.95343e-09
vernier = 0.00442651
vernier = 0.00590201
vernier = 0.00295101
Gmin = 2.92957e-09
vernier = 0.00393467
vernier = 0.00524623
Gmin = 2.9021e-09
vernier = 0.00262311
vernier = 0.00349749
Gmin = 2.88629e-09
vernier = 0.00466331
vernier = 0.00621775
Gmin = 2.8523e-09
vernier = 0.00829033
Gmin = 2.79964e-09
vernier = 0.0110538
vernier = 0.0147384
Gmin = 2.71345e-09
vernier = 0.0196511
vernier = 0.00982557
vernier = 0.00491278
Gmin = 2.67708e-09
vernier = 0.00655038
vernier = 0.00873383
Gmin = 2.6279e-09
vernier = 0.0116451
vernier = 0.0155268
vernier = 0.0077634
Gmin = 2.57122e-09
vernier = 0.0103512
Gmin = 2.51372e-09
vernier = 0.0138016
vernier = 0.0184021
vernier = 0.00920106
Gmin = 2.45031e-09
vernier = 0.0122681
Gmin = 2.38369e-09
vernier = 0.0163574
vernier = 0.00817872
vernier = 0.00408936
vernier = 0.00545248
vernier = 0.00272624
Gmin = 2.37155e-09
vernier = 0.00363498
Gmin = 2.35277e-09
vernier = 0.00484665
vernier = 0.00242332
vernier = 0.0032311
Gmin = 2.33975e-09
vernier = 0.00430813
vernier = 0.00215406
Gmin = 2.32718e-09
vernier = 0.00287208
vernier = 0.00382944
Gmin = 2.3093e-09
vernier = 0.00510592
vernier = 0.00255296
Gmin = 2.29534e-09
vernier = 0.00340395
vernier = 0.0045386
vernier = 0.0022693
Gmin = 2.28107e-09
vernier = 0.00302573
vernier = 0.00403431
Gmin = 2.2646e-09
vernier = 0.00201715
vernier = 0.00268954
Gmin = 2.25511e-09
vernier = 0.00358605
vernier = 0.0047814
vernier = 0.0023907
Gmin = 2.24e-09
vernier = 0.00119535
vernier = 0.0015938
Gmin = 2.23309e-09
vernier = 0.00212506
vernier = 0.00283342
Gmin = 2.22107e-09
vernier = 0.00377789
Gmin = 2.20228e-09
vernier = 0.00503719
vernier = 0.00251859
vernier = 0.00335812
Gmin = 2.18984e-09
vernier = 0.0044775
vernier = 0.00223875
Gmin = 2.17823e-09
vernier = 0.002985
vernier = 0.00397999
vernier = 0.00199
Gmin = 2.16635e-09
vernier = 0.00265333
vernier = 0.00353777
Gmin = 2.15262e-09
vernier = 0.00471703
vernier = 0.00235851
Gmin = 2.13934e-09
vernier = 0.00314468
vernier = 0.00419291
vernier = 0.00209646
Gmin = 2.12677e-09
vernier = 0.00279527
Gmin = 2.11381e-09
vernier = 0.00372703
vernier = 0.00496937
vernier = 0.00248469
Gmin = 2.09926e-09
vernier = 0.00331291
Gmin = 2.08367e-09
vernier = 0.00441722
vernier = 0.00220861
vernier = 0.00294481
Gmin = 2.07335e-09
vernier = 0.00392641
vernier = 0.00196321
Gmin = 2.06371e-09
vernier = 0.00261761
vernier = 0.00349014
Gmin = 2.04846e-09
vernier = 0.00465352
vernier = 0.00232676
vernier = 0.00310235
Gmin = 2.03738e-09
vernier = 0.00413646
vernier = 0.00206823
Gmin = 2.02635e-09
vernier = 0.00275764
vernier = 0.00367685
vernier = 0.00183843
Gmin = 2.0159e-09
vernier = 0.00245124
Gmin = 2.00512e-09
vernier = 0.00326831
vernier = 0.00435775
vernier = 0.00217887
Gmin = 1.99301e-09
vernier = 0.00290517
Gmin = 1.98003e-09
vernier = 0.00387355
vernier = 0.00193678
vernier = 0.00258237
Gmin = 1.97143e-09
vernier = 0.00344316
vernier = 0.00459087
Gmin = 1.95524e-09
vernier = 0.00229544
vernier = 0.00306058
Gmin = 1.94591e-09
vernier = 0.00408078
vernier = 0.00204039
vernier = 0.00272052
Gmin = 1.93667e-09
vernier = 0.00362735
vernier = 0.00181368
Gmin = 1.92748e-09
vernier = 0.00241824
vernier = 0.00322431
Gmin = 1.91567e-09
vernier = 0.00429908
vernier = 0.00214954
Gmin = 1.90541e-09
vernier = 0.00286605
vernier = 0.00382141
vernier = 0.0019107
Gmin = 1.89531e-09
vernier = 0.0025476
Gmin = 1.88448e-09
vernier = 0.0033968
vernier = 0.00452907
vernier = 0.00226453
Gmin = 1.87279e-09
vernier = 0.00301938
vernier = 0.00402584
Gmin = 1.85929e-09
vernier = 0.00201292
vernier = 0.00268389
Gmin = 1.85151e-09
vernier = 0.00357852
vernier = 0.00178926
vernier = 0.00238568
Gmin = 1.8438e-09
vernier = 0.00318091
Gmin = 1.83102e-09
vernier = 0.00424121
vernier = 0.0021206
vernier = 0.00282747
Gmin = 1.82215e-09
vernier = 0.00376996
vernier = 0.00188498
Gmin = 1.81358e-09
vernier = 0.00251331
vernier = 0.00335107
Gmin = 1.80138e-09
vernier = 0.0044681
vernier = 0.00223405
Gmin = 1.79185e-09
vernier = 0.00297873
vernier = 0.00397164
vernier = 0.00198582
Gmin = 1.7821e-09
vernier = 0.00264776
vernier = 0.00353034
Gmin = 1.77083e-09
vernier = 0.00176517
vernier = 0.00235356
Gmin = 1.76433e-09
vernier = 0.00313808
vernier = 0.00418411
vernier = 0.00209205
Gmin = 1.75398e-09
vernier = 0.00278941
Gmin = 1.74332e-09
vernier = 0.00371921
vernier = 0.0018596
vernier = 0.00247947
Gmin = 1.73591e-09
vernier = 0.00330596
Gmin = 1.72305e-09
vernier = 0.00440794
vernier = 0.00220397
vernier = 0.00293863
Gmin = 1.71453e-09
vernier = 0.00391817
vernier = 0.00195909
Gmin = 1.70657e-09
vernier = 0.00261211
vernier = 0.00348282
vernier = 0.00174141
Gmin = 1.69842e-09
vernier = 0.00232188
vernier = 0.00309584
Gmin = 1.689e-09
vernier = 0.00412778
Gmin = 1.67382e-09
vernier = 0.00550371
vernier = 0.00733827
Gmin = 1.64927e-09
vernier = 0.00978436
vernier = 0.0130458
Gmin = 1.6111e-09
vernier = 0.0065229
vernier = 0.00326145
vernier = 0.0043486
Gmin = 1.60454e-09
vernier = 0.00579813
vernier = 0.00773084
Gmin = 1.58242e-09
vernier = 0.0103078
Gmin = 1.54718e-09
vernier = 0.0137437
vernier = 0.00687186
vernier = 0.00916248
Gmin = 1.52303e-09
vernier = 0.0122166
vernier = 0.00610832
Gmin = 1.49997e-09
vernier = 0.00814442
vernier = 0.0108592
vernier = 0.00542961
vernier = 0.00271481
Gmin = 1.47952e-09
vernier = 0.00361974
vernier = 0.00180987
Gmin = 1.47251e-09
vernier = 0.00241316
vernier = 0.00321754
Gmin = 1.46351e-09
vernier = 0.00429006
Gmin = 1.44946e-09
vernier = 0.00572008
vernier = 0.00762677
Gmin = 1.42617e-09
vernier = 0.010169
vernier = 0.00508451
vernier = 0.00677935
Gmin = 1.40937e-09
vernier = 0.00903912
Gmin = 1.3818e-09
vernier = 0.0120522
vernier = 0.00602608
vernier = 0.00803477
Gmin = 1.36287e-09
vernier = 0.010713
vernier = 0.00535651
vernier = 0.00267826
Gmin = 1.34926e-09
vernier = 0.00357101
vernier = 0.0017855
vernier = 0.00238067
Gmin = 1.34365e-09
vernier = 0.00317423
vernier = 0.00158711
Gmin = 1.33807e-09
vernier = 0.00211615
vernier = 0.00282153
Gmin = 1.33089e-09
vernier = 0.00376205
vernier = 0.00188102
Gmin = 1.32465e-09
vernier = 0.00250803
vernier = 0.00334404
vernier = 0.00167202
Gmin = 1.3185e-09
vernier = 0.00222936
Gmin = 1.31191e-09
vernier = 0.00297248
vernier = 0.0039633
Gmin = 1.30091e-09
vernier = 0.0052844
vernier = 0.00704587
Gmin = 1.28357e-09
vernier = 0.00939449
vernier = 0.00469724
Gmin = 1.26859e-09
vernier = 0.00626299
vernier = 0.00835065
Gmin = 1.24744e-09
vernier = 0.0111342
vernier = 0.0055671
vernier = 0.00278355
Gmin = 1.23621e-09
vernier = 0.0037114
vernier = 0.0018557
vernier = 0.00247427
Gmin = 1.23097e-09
vernier = 0.00329902
vernier = 0.00164951
Gmin = 1.2259e-09
vernier = 0.00219935
vernier = 0.00293246
vernier = 0.00146623
Gmin = 1.22092e-09
vernier = 0.00195497
Gmin = 1.21556e-09
vernier = 0.00260663
vernier = 0.00347551
vernier = 0.00173775
Gmin = 1.20976e-09
vernier = 0.002317
vernier = 0.00308934
Gmin = 1.20307e-09
vernier = 0.00154467
vernier = 0.00205956
Gmin = 1.19921e-09
vernier = 0.00274608
vernier = 0.00366143
Gmin = 1.19087e-09
vernier = 0.00488191
Gmin = 1.17787e-09
vernier = 0.00650921
vernier = 0.00867895
Gmin = 1.15636e-09
vernier = 0.0115719
vernier = 0.00578596
vernier = 0.00289298
Gmin = 1.14721e-09
vernier = 0.00385731
vernier = 0.00514308
Gmin = 1.13474e-09
vernier = 0.00685743
vernier = 0.00914324
vernier = 0.00457162
Gmin = 1.12026e-09
vernier = 0.00228581
vernier = 0.00304775
vernier = 0.00152387
Gmin = 1.11621e-09
vernier = 0.00203183
vernier = 0.00270911
Gmin = 1.11079e-09
vernier = 0.00361214
Gmin = 1.10205e-09
vernier = 0.00481619
vernier = 0.00642158
Gmin = 1.08789e-09
vernier = 0.00856211
vernier = 0.0114161
Gmin = 1.06582e-09
vernier = 0.00570807
vernier = 0.00761076
Gmin = 1.05323e-09
vernier = 0.0101477
vernier = 0.00507384
vernier = 0.00253692
Gmin = 1.04592e-09
vernier = 0.00338256
vernier = 0.00169128
vernier = 0.00225504
Gmin = 1.04194e-09
vernier = 0.00300672
vernier = 0.00150336
Gmin = 1.03823e-09
vernier = 0.00200448
vernier = 0.00267264
Gmin = 1.03235e-09
vernier = 0.00356351
vernier = 0.00475135
Gmin = 1.02305e-09
vernier = 0.00633513
Gmin = 1.00858e-09
vernier = 0.00844684
vernier = 0.00422342
vernier = 0.00563122
Gmin = 9.99048e-10
vernier = 0.0075083
vernier = 0.0100111
Gmin = 9.81253e-10
vernier = 0.00500553
vernier = 0.00250276
vernier = 0.00333702
vernier = 0.00166851
Gmin = 9.80229e-10
vernier = 0.00222468
Gmin = 9.75336e-10
vernier = 0.00296624
vernier = 0.00148312
vernier = 0.00197749
Gmin = 9.72087e-10
vernier = 0.00263665
vernier = 0.00351554
Gmin = 9.65968e-10
vernier = 0.00468738
Gmin = 9.56119e-10
vernier = 0.00624984
vernier = 0.00833312
vernier = 0.00416656
Gmin = 9.45111e-10
vernier = 0.00555541
Gmin = 9.33378e-10
vernier = 0.00740722
vernier = 0.00987629
vernier = 0.00493814
Gmin = 9.208e-10
vernier = 0.00658419
vernier = 0.00877892
Gmin = 9.064e-10
vernier = 0.00438946
vernier = 0.00585261
Gmin = 8.98154e-10
vernier = 0.00780348
vernier = 0.0104046
vernier = 0.00520232
Gmin = 8.8512e-10
vernier = 0.00693642
Gmin = 8.71801e-10
vernier = 0.00924856
vernier = 0.00462428
vernier = 0.00231214
vernier = 0.00308285
Gmin = 8.67113e-10
vernier = 0.00154143
vernier = 0.00205523
Gmin = 8.64333e-10
vernier = 0.00274031
vernier = 0.00137016
vernier = 0.00182687
Gmin = 8.61575e-10
vernier = 0.00243583
Gmin = 8.56997e-10
vernier = 0.00324777
vernier = 0.00433036
Gmin = 8.49553e-10
vernier = 0.00577382
vernier = 0.00769842
Gmin = 8.3789e-10
vernier = 0.0102646
vernier = 0.00513228
Gmin = 8.26687e-10
vernier = 0.00684304
vernier = 0.00912405
vernier = 0.00456202
Gmin = 8.16157e-10
vernier = 0.00228101
vernier = 0.00114051
vernier = 0.00152067
Gmin = 8.14065e-10
vernier = 0.00202757
vernier = 0.00270342
Gmin = 8.10121e-10
vernier = 0.00135171
vernier = 0.00180228
Gmin = 8.07844e-10
vernier = 0.00240304
vernier = 0.00320405
Gmin = 8.02926e-10
vernier = 0.00427207
Gmin = 7.95249e-10
vernier = 0.00569609
vernier = 0.00759478
vernier = 0.00379739
Gmin = 7.86993e-10
vernier = 0.00506319
vernier = 0.00675091
Gmin = 7.7751e-10
vernier = 0.00900122
vernier = 0.00450061
vernier = 0.0022503
Gmin = 7.70115e-10
vernier = 0.0030004
vernier = 0.0015002
Gmin = 7.67377e-10
vernier = 0.00200027
vernier = 0.00266702
vernier = 0.00133351
Gmin = 7.64569e-10
vernier = 0.00177802
vernier = 0.00237069
Gmin = 7.61319e-10
vernier = 0.00118534
vernier = 0.00158046
Gmin = 7.59442e-10
vernier = 0.00210728
vernier = 0.0028097
vernier = 0.00140485
Gmin = 7.56448e-10
vernier = 0.00187313
Gmin = 7.53355e-10
vernier = 0.00249751
vernier = 0.00333001
Gmin = 7.48317e-10
vernier = 0.00444002
vernier = 0.00592002
Gmin = 7.40404e-10
vernier = 0.00789336
vernier = 0.00394668
Gmin = 7.32778e-10
vernier = 0.00526224
vernier = 0.00701632
Gmin = 7.23049e-10
vernier = 0.00935509
vernier = 0.00467754
Gmin = 7.14649e-10
vernier = 0.00623672
vernier = 0.00831563
vernier = 0.00415781
vernier = 0.00207891
Gmin = 7.07173e-10
vernier = 0.00277188
vernier = 0.00138594
Gmin = 7.04605e-10
vernier = 0.00184792
vernier = 0.00246389
Gmin = 7.01305e-10
vernier = 0.00328518
Gmin = 6.96142e-10
vernier = 0.00438024
vernier = 0.00584032
Gmin = 6.87561e-10
vernier = 0.0077871
vernier = 0.00389355
vernier = 0.0051914
Gmin = 6.81347e-10
vernier = 0.00692186
Gmin = 6.71115e-10
vernier = 0.00922914
vernier = 0.00461457
vernier = 0.00615276
Gmin = 6.64061e-10
vernier = 0.00820368
vernier = 0.00410184
vernier = 0.00205092
Gmin = 6.58976e-10
vernier = 0.00273456
vernier = 0.00136728
vernier = 0.00182304
Gmin = 6.56878e-10
vernier = 0.00243072
vernier = 0.00121536
Gmin = 6.54786e-10
vernier = 0.00162048
vernier = 0.00216064
Gmin = 6.52095e-10
vernier = 0.00288085
Gmin = 6.47883e-10
vernier = 0.00384113
vernier = 0.00512151
Gmin = 6.40874e-10
vernier = 0.00682867
vernier = 0.0091049
vernier = 0.00455245
Gmin = 6.32728e-10
vernier = 0.00606993
Gmin = 6.24387e-10
vernier = 0.00809324
vernier = 0.00404662
vernier = 0.00202331
vernier = 0.00269774
Gmin = 6.21448e-10
vernier = 0.00134887
vernier = 0.0017985
Gmin = 6.19704e-10
vernier = 0.00239799
vernier = 0.001199
vernier = 0.00159866
Gmin = 6.17973e-10
vernier = 0.00213155
Gmin = 6.15099e-10
vernier = 0.00284207
vernier = 0.00378942
Gmin = 6.10421e-10
vernier = 0.00505256
vernier = 0.00673674
Gmin = 6.03081e-10
vernier = 0.00898232
vernier = 0.00449116
Gmin = 5.96018e-10
vernier = 0.00598821
vernier = 0.00798428
vernier = 0.00399214
Gmin = 5.89368e-10
vernier = 0.00199607
vernier = 0.00266143
vernier = 0.00133071
Gmin = 5.87509e-10
vernier = 0.00177428
vernier = 0.00236571
Gmin = 5.85017e-10
vernier = 0.00118286
vernier = 0.00157714
Gmin = 5.83577e-10
vernier = 0.00210285
vernier = 0.0028038
Gmin = 5.80467e-10
vernier = 0.0037384
Gmin = 5.75607e-10
vernier = 0.00498454
vernier = 0.00664605
Gmin = 5.67541e-10
vernier = 0.00886139
vernier = 0.0044307
vernier = 0.00221535
Gmin = 5.64096e-10
vernier = 0.0029538
vernier = 0.0039384
Gmin = 5.59397e-10
vernier = 0.00525119
vernier = 0.00700159
vernier = 0.00350079
Gmin = 5.53919e-10
vernier = 0.0017504
vernier = 0.00233386
vernier = 0.00116693
Gmin = 5.52387e-10
vernier = 0.00155591
vernier = 0.00207454
Gmin = 5.50332e-10
vernier = 0.00276606
Gmin = 5.47013e-10
vernier = 0.00368808
vernier = 0.00491743
Gmin = 5.41621e-10
vernier = 0.00655657
vernier = 0.0087421
Gmin = 5.33186e-10
vernier = 0.00437105
vernier = 0.00582806
Gmin = 5.28355e-10
vernier = 0.00777075
vernier = 0.00388537
vernier = 0.00194269
Gmin = 5.25541e-10
vernier = 0.00259025
vernier = 0.00129512
vernier = 0.00172683
Gmin = 5.24012e-10
vernier = 0.00230244
vernier = 0.00115122
Gmin = 5.22582e-10
vernier = 0.00153496
vernier = 0.00204661
Gmin = 5.20315e-10
vernier = 0.00272882
vernier = 0.00363842
Gmin = 5.1672e-10
vernier = 0.00485123
Gmin = 5.11113e-10
vernier = 0.00646831
vernier = 0.00862441
vernier = 0.0043122
vernier = 0.0021561
Gmin = 5.05909e-10
vernier = 0.0028748
Gmin = 5.02649e-10
vernier = 0.00383307
vernier = 0.00511076
Gmin = 4.97222e-10
vernier = 0.00681434
vernier = 0.00340717
vernier = 0.00170358
Gmin = 4.94899e-10
vernier = 0.00227145
vernier = 0.00302859
Gmin = 4.91726e-10
vernier = 0.00403812
vernier = 0.00538416
Gmin = 4.86707e-10
vernier = 0.00717888
vernier = 0.00358944
Gmin = 4.82362e-10
vernier = 0.00478592
vernier = 0.00638123
Gmin = 4.76201e-10
vernier = 0.0085083
vernier = 0.00425415
vernier = 0.00212707
Gmin = 4.72923e-10
vernier = 0.0028361
vernier = 0.00378146
Gmin = 4.69333e-10
vernier = 0.00504195
vernier = 0.0067226
Gmin = 4.63701e-10
vernier = 0.00896346
vernier = 0.00448173
vernier = 0.00224087
Gmin = 4.5931e-10
vernier = 0.00298782
vernier = 0.00398376
Gmin = 4.56035e-10
vernier = 0.00531168
Gmin = 4.5077e-10
vernier = 0.00708224
vernier = 0.00354112
vernier = 0.00472149
Gmin = 4.47128e-10
vernier = 0.00629532
Gmin = 4.40844e-10
vernier = 0.00839376
vernier = 0.00419688
vernier = 0.00559584
Gmin = 4.36703e-10
vernier = 0.00746111
vernier = 0.00373056
vernier = 0.00186528
Gmin = 4.34065e-10
vernier = 0.00248704
vernier = 0.00124352
vernier = 0.00165802
Gmin = 4.3283e-10
vernier = 0.0022107
Gmin = 4.30683e-10
vernier = 0.0029476
vernier = 0.00393013
Gmin = 4.27103e-10
vernier = 0.00524017
vernier = 0.00698689
vernier = 0.00349345
Gmin = 4.2293e-10
vernier = 0.00465793
Gmin = 4.18644e-10
vernier = 0.00621057
vernier = 0.00828075
vernier = 0.00414038
Gmin = 4.13855e-10
vernier = 0.0055205
Gmin = 4.08749e-10
vernier = 0.00736067
vernier = 0.00368033
vernier = 0.00184017
vernier = 0.00245355
vernier = 0.00122678
Gmin = 4.0781e-10
vernier = 0.0016357
Gmin = 4.06354e-10
vernier = 0.00218094
vernier = 0.00290791
Gmin = 4.0398e-10
vernier = 0.00387722
vernier = 0.00516962
Gmin = 4.00246e-10
vernier = 0.00689283
vernier = 0.00344641
Gmin = 3.96644e-10
vernier = 0.00459522
vernier = 0.00612696
Gmin = 3.92041e-10
vernier = 0.00816927
vernier = 0.00408464
Gmin = 3.88061e-10
vernier = 0.00544618
vernier = 0.00726157
vernier = 0.00363079
vernier = 0.00181539
Gmin = 3.84513e-10
vernier = 0.00242052
vernier = 0.00121026
Gmin = 3.83293e-10
vernier = 0.00161368
vernier = 0.00215158
Gmin = 3.81725e-10
vernier = 0.00286877
Gmin = 3.7927e-10
vernier = 0.00382502
vernier = 0.00510003
Gmin = 3.75184e-10
vernier = 0.00680003
vernier = 0.00340002
vernier = 0.00170001
Gmin = 3.73435e-10
vernier = 0.00226668
vernier = 0.00113334
vernier = 0.00151112
Gmin = 3.72484e-10
vernier = 0.00201482
vernier = 0.00268643
Gmin = 3.70691e-10
vernier = 0.00358191
Gmin = 3.67799e-10
vernier = 0.00477587
vernier = 0.00636783
Gmin = 3.63111e-10
vernier = 0.00849044
vernier = 0.00424522
vernier = 0.00212261
Gmin = 3.60616e-10
vernier = 0.00283015
vernier = 0.00377353
Gmin = 3.57885e-10
vernier = 0.00503137
vernier = 0.00670849
Gmin = 3.53599e-10
vernier = 0.00335424
vernier = 0.00447232
Gmin = 3.51138e-10
vernier = 0.0059631
vernier = 0.00795079
vernier = 0.0039754
Gmin = 3.47237e-10
vernier = 0.0019877
vernier = 0.00265026
Gmin = 3.45459e-10
vernier = 0.00353368
vernier = 0.00471158
Gmin = 3.42371e-10
vernier = 0.0062821
Gmin = 3.37569e-10
vernier = 0.00837614
vernier = 0.00418807
vernier = 0.00558409
Gmin = 3.34405e-10
vernier = 0.00744545
vernier = 0.00372273
vernier = 0.00186136
Gmin = 3.3239e-10
vernier = 0.00248182
vernier = 0.00330909
Gmin = 3.30181e-10
vernier = 0.00441212
vernier = 0.00588282
Gmin = 3.26711e-10
vernier = 0.00784376
vernier = 0.00392188
vernier = 0.00196094
Gmin = 3.24001e-10
vernier = 0.00261458
vernier = 0.00348611
Gmin = 3.21979e-10
vernier = 0.00464815
Gmin = 3.18723e-10
vernier = 0.00619753
vernier = 0.00826337
vernier = 0.00413169
vernier = 0.00206584
Gmin = 3.1541e-10
vernier = 0.00275446
Gmin = 3.13515e-10
vernier = 0.00367261
vernier = 0.00489681
Gmin = 3.10438e-10
vernier = 0.00652908
vernier = 0.00326454
Gmin = 3.08041e-10
vernier = 0.00435272
vernier = 0.00580362
Gmin = 3.04268e-10
vernier = 0.00773816
vernier = 0.00386908
vernier = 0.00193454
Gmin = 3.02654e-10
vernier = 0.00257939
vernier = 0.00343918
Gmin = 3.00451e-10
vernier = 0.00458557
vernier = 0.0061141
vernier = 0.00305705
Gmin = 2.97881e-10
vernier = 0.00407606
Gmin = 2.95238e-10
vernier = 0.00543475
vernier = 0.00724633
vernier = 0.00362316
Gmin = 2.92279e-10
vernier = 0.00483089
Gmin = 2.89121e-10
vernier = 0.00644118
vernier = 0.00322059
vernier = 0.00429412
Gmin = 2.87035e-10
vernier = 0.00572549
vernier = 0.00763398
Gmin = 2.83127e-10
vernier = 0.00381699
vernier = 0.0019085
vernier = 0.00254466
Gmin = 2.82452e-10
vernier = 0.00339288
vernier = 0.00452384
Gmin = 2.80167e-10
vernier = 0.00603178
vernier = 0.00301589
Gmin = 2.77958e-10
vernier = 0.00402119
vernier = 0.00536158
Gmin = 2.75134e-10
vernier = 0.00714878
vernier = 0.00357439
Gmin = 2.72687e-10
vernier = 0.00476585
vernier = 0.00635446
vernier = 0.00317723
Gmin = 2.7029e-10
vernier = 0.00423631
Gmin = 2.67727e-10
vernier = 0.00564841
vernier = 0.00753121
vernier = 0.00376561
vernier = 0.0018828
Gmin = 2.65345e-10
vernier = 0.0025104
Gmin = 2.63851e-10
vernier = 0.0033472
vernier = 0.00446294
Gmin = 2.61361e-10
vernier = 0.00595058
vernier = 0.00297529
vernier = 0.00396705
Gmin = 2.59554e-10
vernier = 0.0052894
Gmin = 2.5657e-10
vernier = 0.00705253
vernier = 0.00352627
vernier = 0.00470169
Gmin = 2.54506e-10
vernier = 0.00626892
vernier = 0.00313446
Gmin = 2.5252e-10
vernier = 0.00417928
vernier = 0.00557237
Gmin = 2.49702e-10
vernier = 0.00742982
vernier = 0.00371491
Gmin = 2.47509e-10
vernier = 0.00495321
vernier = 0.00660428
vernier = 0.00330214
vernier = 0.00165107
Gmin = 2.45577e-10
vernier = 0.00220143
vernier = 0.00110071
Gmin = 2.44902e-10
vernier = 0.00146762
vernier = 0.00195682
Gmin = 2.43938e-10
vernier = 0.0026091
vernier = 0.00347879
Gmin = 2.42419e-10
vernier = 0.00463839
Gmin = 2.39973e-10
vernier = 0.00618452
vernier = 0.00309226
vernier = 0.00412301
Gmin = 2.38279e-10
vernier = 0.00549735
Gmin = 2.35352e-10
vernier = 0.0073298
vernier = 0.0036649
vernier = 0.00183245
vernier = 0.00244326
Gmin = 2.34527e-10
vernier = 0.00325769
Gmin = 2.32815e-10
vernier = 0.00434358
vernier = 0.00579144
vernier = 0.00289572
Gmin = 2.30969e-10
vernier = 0.00386096
vernier = 0.00514794
Gmin = 2.28843e-10
vernier = 0.00686392
vernier = 0.00343196
Gmin = 2.26792e-10
vernier = 0.00457595
vernier = 0.00610126
vernier = 0.00305063
Gmin = 2.24856e-10
vernier = 0.00406751
Gmin = 2.22865e-10
vernier = 0.00542334
vernier = 0.00723112
vernier = 0.00361556
Gmin = 2.20636e-10
vernier = 0.00482074
Gmin = 2.18257e-10
vernier = 0.00642766
vernier = 0.00321383
vernier = 0.00160691
vernier = 0.00214255
vernier = 0.00107128
Gmin = 2.1782e-10
vernier = 0.00142837
Gmin = 2.1714e-10
vernier = 0.00190449
vernier = 0.00253932
Gmin = 2.16032e-10
vernier = 0.00338576
vernier = 0.00451434
Gmin = 2.14287e-10
vernier = 0.00601912
vernier = 0.00300956
vernier = 0.00150478
Gmin = 2.12922e-10
vernier = 0.00200637
vernier = 0.00267516
Gmin = 2.11901e-10
vernier = 0.00356688
Gmin = 2.10255e-10
vernier = 0.00475584
vernier = 0.00634112
vernier = 0.00317056
vernier = 0.00158528
Gmin = 2.08575e-10
vernier = 0.00211371
vernier = 0.00105685
Gmin = 2.07998e-10
vernier = 0.00140914
vernier = 0.00187885
Gmin = 2.07254e-10
vernier = 0.00250513
Gmin = 2.06089e-10
vernier = 0.00334018
vernier = 0.00445357
Gmin = 2.04149e-10
vernier = 0.00593809
vernier = 0.00296904
vernier = 0.00395872
Gmin = 2.0274e-10
vernier = 0.0052783
Gmin = 2.00414e-10
vernier = 0.00703773
vernier = 0.00351886
vernier = 0.00469182
Gmin = 1.98805e-10
vernier = 0.00625576
vernier = 0.00312788
vernier = 0.00156394
Gmin = 1.97644e-10
vernier = 0.00208525
vernier = 0.00104263
vernier = 0.00139017
Gmin = 1.97163e-10
vernier = 0.00185356
Gmin = 1.96366e-10
vernier = 0.00247141
vernier = 0.00329521
Gmin = 1.95066e-10
vernier = 0.00439361
vernier = 0.00585815
Gmin = 1.93025e-10
vernier = 0.00292907
vernier = 0.00146454
vernier = 0.00195272
Gmin = 1.92672e-10
vernier = 0.00260362
vernier = 0.00347149
Gmin = 1.91474e-10
vernier = 0.00462865
Gmin = 1.89546e-10
vernier = 0.00617154
vernier = 0.00308577
vernier = 0.00154288
vernier = 0.00205718
Gmin = 1.88865e-10
vernier = 0.00102859
vernier = 0.00137145
Gmin = 1.88461e-10
vernier = 0.0018286
vernier = 0.00243814
Gmin = 1.87587e-10
vernier = 0.00325085
Gmin = 1.86221e-10
vernier = 0.00433446
vernier = 0.00577928
vernier = 0.00288964
Gmin = 1.84747e-10
vernier = 0.00385285
vernier = 0.00513714
Gmin = 1.83051e-10
vernier = 0.00684951
vernier = 0.00342476
vernier = 0.00171238
Gmin = 1.81724e-10
vernier = 0.00228317
vernier = 0.00304423
Gmin = 1.80733e-10
vernier = 0.00405897
Gmin = 1.79136e-10
vernier = 0.00541196
vernier = 0.00721594
vernier = 0.00360797
Gmin = 1.77349e-10
vernier = 0.00481062
Gmin = 1.75441e-10
vernier = 0.00641416
vernier = 0.00320708
vernier = 0.00160354
vernier = 0.00213805
vernier = 0.00106903
Gmin = 1.75089e-10
vernier = 0.00142537
Gmin = 1.74544e-10
vernier = 0.00190049
vernier = 0.00253399
Gmin = 1.73655e-10
vernier = 0.00337865
vernier = 0.00450487
Gmin = 1.72256e-10
vernier = 0.00600649
vernier = 0.00300324
Gmin = 1.70904e-10
vernier = 0.00400432
vernier = 0.0053391
Gmin = 1.69174e-10
vernier = 0.00711879
vernier = 0.0035594
Gmin = 1.67676e-10
vernier = 0.00474586
vernier = 0.00632781
vernier = 0.00316391
vernier = 0.00158195
Gmin = 1.6634e-10
vernier = 0.00210927
vernier = 0.00105464
Gmin = 1.6588e-10
vernier = 0.00140618
vernier = 0.00187491
Gmin = 1.65288e-10
vernier = 0.00249987
Gmin = 1.64361e-10
vernier = 0.00333316
vernier = 0.00444422
Gmin = 1.62817e-10
vernier = 0.00592562
vernier = 0.00296281
vernier = 0.00395041
Gmin = 1.61696e-10
vernier = 0.00526722
Gmin = 1.59845e-10
vernier = 0.00702296
vernier = 0.00351148
vernier = 0.00468197
Gmin = 1.58564e-10
vernier = 0.00624262
vernier = 0.00312131
vernier = 0.00156066
Gmin = 1.57639e-10
vernier = 0.00208087
vernier = 0.00104044
vernier = 0.00138725
Gmin = 1.57257e-10
vernier = 0.00184967
Gmin = 1.56622e-10
vernier = 0.00246622
vernier = 0.00328829
Gmin = 1.55588e-10
vernier = 0.00438439
vernier = 0.00584585
Gmin = 1.53963e-10
vernier = 0.00292292
vernier = 0.00389723
Gmin = 1.53029e-10
vernier = 0.00519631
vernier = 0.00692841
vernier = 0.0034642
Gmin = 1.51546e-10
vernier = 0.0017321
vernier = 0.00230947
Gmin = 1.5087e-10
vernier = 0.00307929
vernier = 0.00410572
Gmin = 1.49694e-10
vernier = 0.00547429
vernier = 0.00273715
Gmin = 1.48673e-10
vernier = 0.00364953
vernier = 0.00486604
Gmin = 1.47223e-10
vernier = 0.00648805
vernier = 0.00324402
Gmin = 1.46094e-10
vernier = 0.00432536
vernier = 0.00576715
vernier = 0.00288357
Gmin = 1.4494e-10
vernier = 0.00384477
vernier = 0.00512635
Gmin = 1.43612e-10
vernier = 0.00683513
vernier = 0.00341757
Gmin = 1.4233e-10
vernier = 0.00455676
vernier = 0.00607567
vernier = 0.00303784
Gmin = 1.4112e-10
vernier = 0.00151892
vernier = 0.00202522
vernier = 0.00101261
Gmin = 1.40781e-10
vernier = 0.00135015
vernier = 0.0018002
Gmin = 1.40326e-10
vernier = 0.00240026
Gmin = 1.39592e-10
vernier = 0.00320035
vernier = 0.00426713
Gmin = 1.38397e-10
vernier = 0.00568951
vernier = 0.00284475
Gmin = 1.37465e-10
vernier = 0.003793
vernier = 0.00505734
Gmin = 1.35997e-10
vernier = 0.00674312
vernier = 0.00337156
vernier = 0.00168578
Gmin = 1.35368e-10
vernier = 0.0022477
vernier = 0.00299694
Gmin = 1.34509e-10
vernier = 0.00399592
vernier = 0.00532789
Gmin = 1.3315e-10
vernier = 0.00710385
vernier = 0.00355192
vernier = 0.00177596
Gmin = 1.32267e-10
vernier = 0.00236795
vernier = 0.00315727
Gmin = 1.31474e-10
vernier = 0.00420969
Gmin = 1.30235e-10
vernier = 0.00561291
vernier = 0.00280646
vernier = 0.00374194
Gmin = 1.29415e-10
vernier = 0.00498925
vernier = 0.00665234
Gmin = 1.27879e-10
vernier = 0.00332617
vernier = 0.00443489
Gmin = 1.26996e-10
vernier = 0.00591318
vernier = 0.00295659
vernier = 0.00394212
Gmin = 1.26123e-10
vernier = 0.00525616
Gmin = 1.24682e-10
vernier = 0.00700821
vernier = 0.00350411
vernier = 0.00467214
Gmin = 1.23686e-10
vernier = 0.00622952
vernier = 0.00311476
Gmin = 1.22727e-10
vernier = 0.00415301
vernier = 0.00553735
vernier = 0.00276867
Gmin = 1.21786e-10
vernier = 0.00369156
Gmin = 1.20779e-10
vernier = 0.00492209
vernier = 0.00656278
vernier = 0.00328139
Gmin = 1.19694e-10
vernier = 0.00437518
vernier = 0.00583358
Gmin = 1.18447e-10
vernier = 0.00291679
vernier = 0.00145839
vernier = 0.00194453
Gmin = 1.18231e-10
vernier = 0.0025927
vernier = 0.00345693
Gmin = 1.17499e-10
vernier = 0.00460924
Gmin = 1.16321e-10
vernier = 0.00614565
vernier = 0.00307283
vernier = 0.00153641
vernier = 0.00204855
Gmin = 1.15905e-10
vernier = 0.00102428
vernier = 0.0013657
Gmin = 1.15658e-10
vernier = 0.00182093
vernier = 0.00242791
Gmin = 1.15124e-10
vernier = 0.00323721
Gmin = 1.14289e-10
vernier = 0.00431628
vernier = 0.00575504
vernier = 0.00287752
Gmin = 1.13388e-10
vernier = 0.00383669
vernier = 0.00511559
Gmin = 1.12351e-10
vernier = 0.00682079
vernier = 0.00341039
vernier = 0.0017052
Gmin = 1.11541e-10
vernier = 0.00227359
vernier = 0.00303146
Gmin = 1.10935e-10
vernier = 0.00404194
Gmin = 1.09959e-10
vernier = 0.00538926
vernier = 0.00269463
vernier = 0.00359284
Gmin = 1.09282e-10
vernier = 0.00479045
Gmin = 1.08111e-10
vernier = 0.00638726
vernier = 0.00319363
vernier = 0.00425817
Gmin = 1.07337e-10
vernier = 0.00567757
vernier = 0.00283878
Gmin = 1.06617e-10
vernier = 0.00378504
vernier = 0.00504672
Gmin = 1.0548e-10
vernier = 0.00672896
vernier = 0.00336448
vernier = 0.00168224
Gmin = 1.04993e-10
vernier = 0.00224299
vernier = 0.00299065
Gmin = 1.04328e-10
vernier = 0.00398753
vernier = 0.0053167
vernier = 0.00265835
Gmin = 1.03552e-10
vernier = 0.00354447
Gmin = 1.02752e-10
vernier = 0.00472596
vernier = 0.00630127
vernier = 0.00315064
Gmin = 1.01856e-10
vernier = 0.00420085
Gmin = 1.00898e-10
vernier = 0.00560113
vernier = 0.00280057
vernier = 0.00373409
Gmin = 1.00265e-10
vernier = 0.00497878
vernier = 0.00663837
Gmin = 9.90767e-11
vernier = 0.00331919
vernier = 0.00442558
Gmin = 9.83943e-11
vernier = 0.00590077
vernier = 0.00295039
vernier = 0.00147519
Gmin = 9.79961e-11
vernier = 0.00196692
vernier = 0.000983462
vernier = 0.00131128
Gmin = 9.77795e-11
vernier = 0.00174838
vernier = 0.00233117
Gmin = 9.73709e-11
vernier = 0.00310822
Gmin = 9.67113e-11
vernier = 0.00414429
vernier = 0.00552572
vernier = 0.00276286
Gmin = 9.59713e-11
vernier = 0.00368382
Gmin = 9.51795e-11
vernier = 0.00491175
vernier = 0.006549
vernier = 0.0032745
Gmin = 9.43268e-11
vernier = 0.004366
vernier = 0.00582133
Gmin = 9.33457e-11
vernier = 0.00291067
vernier = 0.00388089
Gmin = 9.27816e-11
vernier = 0.00517451
vernier = 0.00689935
vernier = 0.00344968
Gmin = 9.18863e-11
vernier = 0.00172484
vernier = 0.00229978
Gmin = 9.14779e-11
vernier = 0.00306638
vernier = 0.0040885
Gmin = 9.0768e-11
vernier = 0.00545133
vernier = 0.00272567
Gmin = 9.01519e-11
vernier = 0.00363422
vernier = 0.00484563
Gmin = 8.92761e-11
vernier = 0.00646084
vernier = 0.00323042
vernier = 0.00161521
Gmin = 8.88089e-11
vernier = 0.00215361
vernier = 0.00287148
Gmin = 8.82965e-11
vernier = 0.00382864
vernier = 0.00510485
Gmin = 8.74907e-11
vernier = 0.00680647
vernier = 0.00340323
vernier = 0.00170162
Gmin = 8.68606e-11
vernier = 0.00226882
vernier = 0.0030251
Gmin = 8.63899e-11
vernier = 0.00403346
Gmin = 8.56313e-11
vernier = 0.00537794
vernier = 0.00717059
vernier = 0.0035853
Gmin = 8.47822e-11
vernier = 0.00478039
Gmin = 8.38757e-11
vernier = 0.00637386
vernier = 0.00318693
vernier = 0.00424924
Gmin = 8.32767e-11
vernier = 0.00566565
vernier = 0.00283282
Gmin = 8.27185e-11
vernier = 0.0037771
vernier = 0.00503613
Gmin = 8.18385e-11
vernier = 0.00671484
vernier = 0.00335742
vernier = 0.00167871
Gmin = 8.14617e-11
vernier = 0.00223828
vernier = 0.00298437
Gmin = 8.09469e-11
vernier = 0.00397916
vernier = 0.00530554
vernier = 0.00265277
Gmin = 8.03455e-11
vernier = 0.00353703
Gmin = 7.97265e-11
vernier = 0.00471604
vernier = 0.00628805
vernier = 0.00314402
Gmin = 7.90328e-11
vernier = 0.00419203
Gmin = 7.82912e-11
vernier = 0.00558937
vernier = 0.00279469
vernier = 0.00372625
Gmin = 7.78006e-11
vernier = 0.00496833
vernier = 0.00662444
Gmin = 7.68806e-11
vernier = 0.00331222
vernier = 0.00441629
Gmin = 7.63521e-11
vernier = 0.00588839
vernier = 0.00294419
vernier = 0.0014721
Gmin = 7.60438e-11
vernier = 0.00196279
vernier = 0.000981397
vernier = 0.00130853
Gmin = 7.58761e-11
vernier = 0.00174471
vernier = 0.00232627
Gmin = 7.55596e-11
vernier = 0.0031017
Gmin = 7.50489e-11
vernier = 0.00413559
vernier = 0.00551413
vernier = 0.00275706
Gmin = 7.44759e-11
vernier = 0.00367608
Gmin = 7.38627e-11
vernier = 0.00490144
vernier = 0.00653525
vernier = 0.00326763
Gmin = 7.32023e-11
vernier = 0.00435684
vernier = 0.00580911
Gmin = 7.24426e-11
vernier = 0.00290456
vernier = 0.00145228
vernier = 0.00193637
vernier = 0.000968185
Gmin = 7.23987e-11
vernier = 0.00129091
Gmin = 7.21887e-11
vernier = 0.00172122
vernier = 0.00229496
Gmin = 7.18376e-11
vernier = 0.00305994
vernier = 0.00407992
Gmin = 7.12813e-11
vernier = 0.00543989
vernier = 0.00271995
vernier = 0.00135997
Gmin = 7.09189e-11
vernier = 0.0018133
vernier = 0.00241773
Gmin = 7.05929e-11
vernier = 0.00322364
Gmin = 7.00829e-11
vernier = 0.00429818
vernier = 0.00573091
vernier = 0.00286545
Gmin = 6.95331e-11
vernier = 0.0038206
vernier = 0.00509414
Gmin = 6.88998e-11
vernier = 0.00679218
vernier = 0.00339609
Gmin = 6.82887e-11
vernier = 0.00452812
vernier = 0.00603749
vernier = 0.00301875
Gmin = 6.77116e-11
vernier = 0.00402499
Gmin = 6.71183e-11
vernier = 0.00536666
vernier = 0.00268333
vernier = 0.00357777
Gmin = 6.6707e-11
vernier = 0.00477036
Gmin = 6.59953e-11
vernier = 0.00636048
vernier = 0.00318024
vernier = 0.00159012
vernier = 0.00079506
vernier = 0.00106008
Gmin = 6.59122e-11
vernier = 0.00141344
Gmin = 6.57088e-11
vernier = 0.00188458
vernier = 0.000942292
vernier = 0.00125639
Gmin = 6.55671e-11
vernier = 0.00167519
Gmin = 6.53205e-11
vernier = 0.00223358
vernier = 0.00297811
Gmin = 6.49085e-11
vernier = 0.00397081
vernier = 0.00529441
Gmin = 6.42571e-11
vernier = 0.00705921
vernier = 0.0035296
vernier = 0.0017648
Gmin = 6.38335e-11
vernier = 0.00235307
vernier = 0.00313742
Gmin = 6.34529e-11
vernier = 0.00418323
Gmin = 6.28588e-11
vernier = 0.00557764
vernier = 0.00278882
vernier = 0.00371843
Gmin = 6.24658e-11
vernier = 0.0049579
vernier = 0.00661053
Gmin = 6.17286e-11
vernier = 0.00330527
vernier = 0.00440702
Gmin = 6.13052e-11
vernier = 0.00587602
vernier = 0.00293801
vernier = 0.00146901
Gmin = 6.10581e-11
vernier = 0.00195867
vernier = 0.000979337
vernier = 0.00130578
Gmin = 6.09237e-11
vernier = 0.00174104
vernier = 0.00232139
Gmin = 6.06702e-11
vernier = 0.00309519
Gmin = 6.02609e-11
vernier = 0.00412691
vernier = 0.00550255
vernier = 0.00275128
Gmin = 5.98018e-11
vernier = 0.00366837
Gmin = 5.93104e-11
vernier = 0.00489115
vernier = 0.00652154
vernier = 0.00326077
vernier = 0.00163038
Gmin = 5.88532e-11
vernier = 0.00217384
Gmin = 5.85661e-11
vernier = 0.00289846
vernier = 0.00386461
Gmin = 5.80873e-11
vernier = 0.00515281
vernier = 0.00257641
vernier = 0.0012882
Gmin = 5.78819e-11
vernier = 0.0017176
vernier = 0.00229014
Gmin = 5.7601e-11
vernier = 0.00305352
vernier = 0.00407135
Gmin = 5.71559e-11
vernier = 0.00542847
vernier = 0.00271424
Gmin = 5.67695e-11
vernier = 0.00361898
vernier = 0.00482531
Gmin = 5.62203e-11
vernier = 0.00643374
vernier = 0.00321687
vernier = 0.00160843
Gmin = 5.59274e-11
vernier = 0.00214458
vernier = 0.00285944
Gmin = 5.5606e-11
vernier = 0.00381258
vernier = 0.00508344
Gmin = 5.51007e-11
vernier = 0.00254172
vernier = 0.00338896
Gmin = 5.48098e-11
vernier = 0.00451861
vernier = 0.00602482
vernier = 0.00301241
Gmin = 5.43476e-11
vernier = 0.00401654
Gmin = 5.38724e-11
vernier = 0.00535539
vernier = 0.0026777
vernier = 0.00357026
Gmin = 5.35429e-11
vernier = 0.00476034
Gmin = 5.29728e-11
vernier = 0.00634712
vernier = 0.00317356
vernier = 0.00158678
vernier = 0.00211571
Gmin = 5.2812e-11
vernier = 0.00282094
Gmin = 5.2478e-11
vernier = 0.00376126
vernier = 0.00501501
Gmin = 5.1922e-11
vernier = 0.00668667
vernier = 0.00334334
vernier = 0.00167167
Gmin = 5.16839e-11
vernier = 0.00222889
vernier = 0.00297185
Gmin = 5.13587e-11
vernier = 0.00396247
vernier = 0.00528329
vernier = 0.00264165
Gmin = 5.09787e-11
vernier = 0.00352219
Gmin = 5.05876e-11
vernier = 0.00469626
vernier = 0.00626168
vernier = 0.00313084
Gmin = 5.01492e-11
vernier = 0.00417445
Gmin = 4.96806e-11
vernier = 0.00556593
vernier = 0.00278297
vernier = 0.00371062
Gmin = 4.93707e-11
vernier = 0.00494749
vernier = 0.00659665
Gmin = 4.87893e-11
vernier = 0.00329833
vernier = 0.00439777
Gmin = 4.84553e-11
vernier = 0.00586369
vernier = 0.00293184
vernier = 0.00146592
Gmin = 4.82604e-11
vernier = 0.00195456
vernier = 0.000977281
vernier = 0.00130304
Gmin = 4.81544e-11
vernier = 0.00173739
vernier = 0.00231652
Gmin = 4.79544e-11
vernier = 0.00308869
Gmin = 4.76316e-11
vernier = 0.00411825
vernier = 0.005491
vernier = 0.0027455
Gmin = 4.72695e-11
vernier = 0.00366067
Gmin = 4.68819e-11
vernier = 0.00488089
vernier = 0.00650785
vernier = 0.00325392
vernier = 0.00162696
Gmin = 4.65212e-11
vernier = 0.00216928
Gmin = 4.62948e-11
vernier = 0.00289237
vernier = 0.0038565
Gmin = 4.59171e-11
vernier = 0.005142
vernier = 0.002571
vernier = 0.0012855
Gmin = 4.57551e-11
vernier = 0.001714
vernier = 0.00228533
Gmin = 4.55335e-11
vernier = 0.00304711
vernier = 0.00406281
Gmin = 4.51823e-11
vernier = 0.00541708
vernier = 0.00270854
Gmin = 4.48776e-11
vernier = 0.00361138
vernier = 0.00481518
Gmin = 4.44443e-11
vernier = 0.00642023
vernier = 0.00321012
vernier = 0.00160506
Gmin = 4.42132e-11
vernier = 0.00214008
vernier = 0.00285344
Gmin = 4.39597e-11
vernier = 0.00380458
vernier = 0.00507277
Gmin = 4.3561e-11
vernier = 0.00676369
vernier = 0.00338185
Gmin = 4.31762e-11
vernier = 0.00450913
vernier = 0.00601217
vernier = 0.00300608
Gmin = 4.28129e-11
vernier = 0.00150304
vernier = 0.00200406
vernier = 0.00100203
Gmin = 4.27112e-11
vernier = 0.00133604
vernier = 0.00178138
Gmin = 4.25747e-11
vernier = 0.00237518
Gmin = 4.23541e-11
vernier = 0.0031669
vernier = 0.00422253
Gmin = 4.19954e-11
vernier = 0.00563004
vernier = 0.00281502
Gmin = 4.17156e-11
vernier = 0.00375336
vernier = 0.00500448
Gmin = 4.12746e-11
vernier = 0.00667264
vernier = 0.00333632
vernier = 0.00444842
Gmin = 4.09547e-11
vernier = 0.00593123
vernier = 0.00296562
vernier = 0.00148281
Gmin = 4.06975e-11
vernier = 0.00197708
vernier = 0.000988538
Gmin = 4.06021e-11
vernier = 0.00131805
vernier = 0.0017574
Gmin = 4.04508e-11
vernier = 0.0023432
vernier = 0.00312427
Gmin = 4.02107e-11
vernier = 0.00416569
Gmin = 3.98357e-11
vernier = 0.00555425
vernier = 0.00277712
vernier = 0.00370283
Gmin = 3.95877e-11
vernier = 0.00493711
vernier = 0.00658281
Gmin = 3.91225e-11
vernier = 0.0032914
vernier = 0.0016457
vernier = 0.00219427
Gmin = 3.90421e-11
vernier = 0.00292569
vernier = 0.00390092
Gmin = 3.87695e-11
vernier = 0.00520122
vernier = 0.00260061
Gmin = 3.85058e-11
vernier = 0.00346748
vernier = 0.00462331
Gmin = 3.81681e-11
vernier = 0.00616441
vernier = 0.0030822
vernier = 0.0015411
vernier = 0.000770551
Gmin = 3.79775e-11
vernier = 0.0010274
vernier = 0.00136987
Gmin = 3.78842e-11
vernier = 0.00182649
Gmin = 3.77331e-11
vernier = 0.00243532
vernier = 0.00324709
Gmin = 3.7487e-11
vernier = 0.00432946
vernier = 0.00577261
Gmin = 3.71004e-11
vernier = 0.0028863
vernier = 0.00144315
vernier = 0.0019242
vernier = 0.000962101
Gmin = 3.70781e-11
vernier = 0.0012828
Gmin = 3.69712e-11
vernier = 0.0017104
vernier = 0.00228053
Gmin = 3.67926e-11
vernier = 0.00304071
vernier = 0.00405428
Gmin = 3.65094e-11
vernier = 0.0054057
vernier = 0.00270285
Gmin = 3.62637e-11
vernier = 0.0036038
vernier = 0.00480507
Gmin = 3.59143e-11
vernier = 0.00640676
vernier = 0.00320338
vernier = 0.00160169
Gmin = 3.57279e-11
vernier = 0.00213558
vernier = 0.00284745
Gmin = 3.55235e-11
vernier = 0.00379659
vernier = 0.00506212
Gmin = 3.5202e-11
vernier = 0.00253106
vernier = 0.00337475
Gmin = 3.50169e-11
vernier = 0.00449966
vernier = 0.00599955
vernier = 0.00299977
Gmin = 3.47229e-11
vernier = 0.00149989
vernier = 0.00199985
Gmin = 3.45886e-11
vernier = 0.00266646
vernier = 0.00355529
Gmin = 3.43551e-11
vernier = 0.00474038
Gmin = 3.39908e-11
vernier = 0.0063205
vernier = 0.00316025
vernier = 0.00158013
vernier = 0.00210683
Gmin = 3.38881e-11
vernier = 0.00280911
Gmin = 3.36746e-11
vernier = 0.00374548
vernier = 0.00499397
Gmin = 3.33193e-11
vernier = 0.00665863
vernier = 0.00332932
vernier = 0.00443909
Gmin = 3.30616e-11
vernier = 0.00591878
vernier = 0.00295939
Gmin = 3.28059e-11
vernier = 0.00394585
vernier = 0.00526113
vernier = 0.00263057
Gmin = 3.25642e-11
vernier = 0.00131528
vernier = 0.00175371
Gmin = 3.24538e-11
vernier = 0.00233828
vernier = 0.00311771
Gmin = 3.22615e-11
vernier = 0.00415694
Gmin = 3.19613e-11
vernier = 0.00554259
vernier = 0.00277129
vernier = 0.00369506
Gmin = 3.17627e-11
vernier = 0.00492674
vernier = 0.00656899
Gmin = 3.13902e-11
vernier = 0.00328449
vernier = 0.00437932
Gmin = 3.11763e-11
vernier = 0.0058391
vernier = 0.00291955
vernier = 0.00389273
Gmin = 3.09647e-11
vernier = 0.00519031
vernier = 0.00259515
Gmin = 3.07546e-11
vernier = 0.0034602
vernier = 0.0046136
Gmin = 3.04854e-11
vernier = 0.00615147
vernier = 0.00307573
Gmin = 3.0252e-11
vernier = 0.00410098
vernier = 0.00546797
vernier = 0.00273399
Gmin = 3.0023e-11
vernier = 0.00364531
Gmin = 2.97778e-11
vernier = 0.00486042
vernier = 0.00648055
vernier = 0.00324028
vernier = 0.00162014
Gmin = 2.95497e-11
vernier = 0.00216018
Gmin = 2.94064e-11
vernier = 0.00288024
vernier = 0.00384032
Gmin = 2.91675e-11
vernier = 0.00512043
vernier = 0.00256022
vernier = 0.00341362
Gmin = 2.89939e-11
vernier = 0.00455149
Gmin = 2.87068e-11
vernier = 0.00606865
vernier = 0.00303433
vernier = 0.00151716
vernier = 0.00202288
Gmin = 2.86054e-11
vernier = 0.00269718
Gmin = 2.84371e-11
vernier = 0.00359624
vernier = 0.00479498
Gmin = 2.81638e-11
vernier = 0.00639331
vernier = 0.00319665
vernier = 0.00159833
vernier = 0.000799163
Gmin = 2.80459e-11
vernier = 0.00106555
vernier = 0.00142073
Gmin = 2.79701e-11
vernier = 0.00189431
vernier = 0.000947156
Gmin = 2.79039e-11
vernier = 0.00126287
vernier = 0.00168383
Gmin = 2.78094e-11
vernier = 0.00224511
vernier = 0.00299348
Gmin = 2.76602e-11
vernier = 0.0039913
Gmin = 2.74199e-11
vernier = 0.00532174
vernier = 0.00266087
vernier = 0.00354782
Gmin = 2.72533e-11
vernier = 0.00473043
Gmin = 2.69649e-11
vernier = 0.00630724
vernier = 0.00315362
vernier = 0.00157681
vernier = 0.00210241
Gmin = 2.68835e-11
vernier = 0.00280322
Gmin = 2.67146e-11
vernier = 0.00373762
vernier = 0.00498349
vernier = 0.00249175
Gmin = 2.65322e-11
vernier = 0.00332233
vernier = 0.00442977
Gmin = 2.6322e-11
vernier = 0.00590636
vernier = 0.00295318
Gmin = 2.61188e-11
vernier = 0.00393757
vernier = 0.00525009
vernier = 0.00262505
Gmin = 2.59268e-11
vernier = 0.00350006
Gmin = 2.57291e-11
vernier = 0.00466675
vernier = 0.00622233
vernier = 0.00311116
vernier = 0.00155558
Gmin = 2.55274e-11
vernier = 0.000777791
vernier = 0.00103705
Gmin = 2.54762e-11
vernier = 0.00138274
vernier = 0.00184365
vernier = 0.000921825
Gmin = 2.54102e-11
vernier = 0.0012291
Gmin = 2.5342e-11
vernier = 0.0016388
vernier = 0.00218507
Gmin = 2.52306e-11
vernier = 0.00291342
vernier = 0.00388456
Gmin = 2.50552e-11
vernier = 0.00517941
vernier = 0.00258971
Gmin = 2.48855e-11
vernier = 0.00345294
vernier = 0.00460392
Gmin = 2.46682e-11
vernier = 0.00613856
vernier = 0.00306928
Gmin = 2.44797e-11
vernier = 0.00409237
vernier = 0.00545649
vernier = 0.00272825
Gmin = 2.42948e-11
vernier = 0.00363766
Gmin = 2.40968e-11
vernier = 0.00485021
vernier = 0.00646695
vernier = 0.00323347
vernier = 0.00161674
Gmin = 2.39126e-11
vernier = 0.00215565
Gmin = 2.37969e-11
vernier = 0.0028742
vernier = 0.00383226
Gmin = 2.3604e-11
vernier = 0.00510968
vernier = 0.00255484
vernier = 0.00127742
Gmin = 2.35212e-11
vernier = 0.00170323
vernier = 0.00227097
Gmin = 2.3408e-11
vernier = 0.00302796
vernier = 0.00403728
Gmin = 2.32286e-11
vernier = 0.00538303
vernier = 0.00269152
Gmin = 2.30729e-11
vernier = 0.00358869
vernier = 0.00478492
Gmin = 2.28516e-11
vernier = 0.00637989
vernier = 0.00318994
vernier = 0.00159497
Gmin = 2.27335e-11
vernier = 0.00212663
vernier = 0.0028355
Gmin = 2.2604e-11
vernier = 0.00378067
vernier = 0.00504089
Gmin = 2.24002e-11
vernier = 0.00252045
vernier = 0.00336059
Gmin = 2.2283e-11
vernier = 0.00448079
vernier = 0.00597439
vernier = 0.00298719
Gmin = 2.20966e-11
vernier = 0.0014936
vernier = 0.00199146
Gmin = 2.20116e-11
vernier = 0.00265528
vernier = 0.00354038
Gmin = 2.18636e-11
vernier = 0.0047205
Gmin = 2.16327e-11
vernier = 0.006294
vernier = 0.003147
vernier = 0.0015735
vernier = 0.002098
Gmin = 2.15676e-11
vernier = 0.00279733
Gmin = 2.14323e-11
vernier = 0.00372977
vernier = 0.00497303
vernier = 0.00248651
vernier = 0.00124326
Gmin = 2.13061e-11
vernier = 0.00165768
Gmin = 2.12268e-11
vernier = 0.00221023
vernier = 0.00294698
Gmin = 2.10944e-11
vernier = 0.0039293
vernier = 0.00523907
vernier = 0.00261953
Gmin = 2.09396e-11
vernier = 0.00349271
Gmin = 2.07803e-11
vernier = 0.00465695
vernier = 0.00620926
vernier = 0.00310463
Gmin = 2.06017e-11
vernier = 0.00413951
Gmin = 2.04108e-11
vernier = 0.00551934
vernier = 0.00275967
vernier = 0.00367956
Gmin = 2.02845e-11
vernier = 0.00490608
vernier = 0.00654144
Gmin = 2.00476e-11
vernier = 0.00327072
vernier = 0.00436096
Gmin = 1.99116e-11
vernier = 0.00581461
vernier = 0.0029073
vernier = 0.0038764
Gmin = 1.9777e-11
vernier = 0.00516854
vernier = 0.00258427
vernier = 0.00129213
Gmin = 1.96687e-11
vernier = 0.00172285
vernier = 0.00229713
Gmin = 1.95877e-11
vernier = 0.00306284
Gmin = 1.9457e-11
vernier = 0.00408378
vernier = 0.00544504
vernier = 0.00272252
Gmin = 1.93103e-11
vernier = 0.00363002
Gmin = 1.91533e-11
vernier = 0.00484003
vernier = 0.00645337
vernier = 0.00322669
vernier = 0.00161334
Gmin = 1.90071e-11
vernier = 0.00215112
Gmin = 1.89154e-11
vernier = 0.00286816
vernier = 0.00382422
Gmin = 1.87624e-11
vernier = 0.00509896
vernier = 0.00254948
vernier = 0.0033993
Gmin = 1.86511e-11
vernier = 0.0045324
Gmin = 1.84672e-11
vernier = 0.0060432
vernier = 0.0030216
vernier = 0.0015108
vernier = 0.0020144
Gmin = 1.84022e-11
vernier = 0.00268587
Gmin = 1.82945e-11
vernier = 0.00358115
vernier = 0.00477487
Gmin = 1.81193e-11
vernier = 0.00636649
vernier = 0.00318325
vernier = 0.00159162
Gmin = 1.80259e-11
vernier = 0.00212216
vernier = 0.00282955
Gmin = 1.79234e-11
vernier = 0.00377273
vernier = 0.00503031
Gmin = 1.77622e-11
vernier = 0.00251516
vernier = 0.00335354
Gmin = 1.76694e-11
vernier = 0.00447139
vernier = 0.00596185
vernier = 0.00298092
Gmin = 1.7522e-11
vernier = 0.00397456
Gmin = 1.73703e-11
vernier = 0.00529942
vernier = 0.00264971
vernier = 0.00353294
Gmin = 1.72652e-11
vernier = 0.00471059
Gmin = 1.70833e-11
vernier = 0.00628078
vernier = 0.00314039
vernier = 0.0015702
vernier = 0.00209359
Gmin = 1.7032e-11
vernier = 0.00279146
Gmin = 1.69254e-11
vernier = 0.00372194
vernier = 0.00496259
vernier = 0.0024813
vernier = 0.00124065
Gmin = 1.6826e-11
vernier = 0.0016542
Gmin = 1.67635e-11
vernier = 0.00220559
vernier = 0.00294079
Gmin = 1.66591e-11
vernier = 0.00392106
vernier = 0.00522807
vernier = 0.00261404
Gmin = 1.65371e-11
vernier = 0.00130702
vernier = 0.00174269
Gmin = 1.64814e-11
vernier = 0.00232359
vernier = 0.00309811
Gmin = 1.63844e-11
vernier = 0.00413082
Gmin = 1.62328e-11
vernier = 0.00550776
vernier = 0.00275388
vernier = 0.00367184
Gmin = 1.61326e-11
vernier = 0.00489578
vernier = 0.00652771
Gmin = 1.59446e-11
vernier = 0.00326385
vernier = 0.0043518
Gmin = 1.58366e-11
vernier = 0.0058024
vernier = 0.0029012
vernier = 0.00386827
Gmin = 1.57298e-11
vernier = 0.00515769
vernier = 0.00257884
vernier = 0.00128942
Gmin = 1.56439e-11
vernier = 0.00171923
vernier = 0.00229231
Gmin = 1.55796e-11
vernier = 0.00305641
Gmin = 1.54758e-11
vernier = 0.00407521
vernier = 0.00543361
vernier = 0.0027168
Gmin = 1.53594e-11
vernier = 0.0036224
Gmin = 1.52347e-11
vernier = 0.00482987
vernier = 0.00643983
vernier = 0.00321991
vernier = 0.00160996
Gmin = 1.51187e-11
vernier = 0.00214661
Gmin = 1.50459e-11
vernier = 0.00286214
vernier = 0.00381619
Gmin = 1.49244e-11
vernier = 0.00508825
vernier = 0.00254413
vernier = 0.00339217
Gmin = 1.48361e-11
vernier = 0.00452289
Gmin = 1.46902e-11
vernier = 0.00603052
vernier = 0.00301526
vernier = 0.00402034
Gmin = 1.4589e-11
vernier = 0.00536046
vernier = 0.00268023
Gmin = 1.44917e-11
vernier = 0.00357364
vernier = 0.00476485
Gmin = 1.43532e-11
vernier = 0.00635313
vernier = 0.00317656
vernier = 0.00158828
Gmin = 1.42793e-11
vernier = 0.00211771
vernier = 0.00282361
Gmin = 1.41983e-11
vernier = 0.00376481
vernier = 0.00501975
Gmin = 1.40709e-11
vernier = 0.00250988
vernier = 0.0033465
Gmin = 1.39975e-11
vernier = 0.004462
vernier = 0.00594933
vernier = 0.00297467
Gmin = 1.3881e-11
vernier = 0.00396622
Gmin = 1.37611e-11
vernier = 0.00528829
vernier = 0.00264415
vernier = 0.00352553
Gmin = 1.3678e-11
vernier = 0.0047007
Gmin = 1.35342e-11
vernier = 0.0062676
vernier = 0.0031338
vernier = 0.0015669
vernier = 0.0020892
Gmin = 1.34936e-11
vernier = 0.0027856
Gmin = 1.34093e-11
vernier = 0.00371413
vernier = 0.00495217
vernier = 0.00247609
vernier = 0.00123804
Gmin = 1.33307e-11
vernier = 0.00165072
Gmin = 1.32813e-11
vernier = 0.00220096
vernier = 0.00293462
Gmin = 1.31988e-11
vernier = 0.00391282
vernier = 0.0052171
vernier = 0.00260855
Gmin = 1.31024e-11
vernier = 0.00347806
Gmin = 1.30031e-11
vernier = 0.00463742
vernier = 0.00618322
vernier = 0.00309161
Gmin = 1.28918e-11
vernier = 0.00412215
Gmin = 1.27729e-11
vernier = 0.00549619
vernier = 0.0027481
vernier = 0.00366413
Gmin = 1.26942e-11
vernier = 0.0048855
vernier = 0.006514
Gmin = 1.25465e-11
vernier = 0.003257
vernier = 0.00434267
Gmin = 1.24617e-11
vernier = 0.00579022
vernier = 0.00289511
vernier = 0.00386015
Gmin = 1.23779e-11
vernier = 0.00514686
vernier = 0.00257343
Gmin = 1.22946e-11
vernier = 0.00343124
vernier = 0.00457499
Gmin = 1.21879e-11
vernier = 0.00609998
vernier = 0.00304999
vernier = 0.00152499
Gmin = 1.21184e-11
vernier = 0.00203333
vernier = 0.0027111
Gmin = 1.20559e-11
vernier = 0.0036148
Gmin = 1.19583e-11
vernier = 0.00481973
vernier = 0.00642631
vernier = 0.00321315
vernier = 0.00160658
Gmin = 1.18675e-11
vernier = 0.0021421
Gmin = 1.18104e-11
vernier = 0.00285614
vernier = 0.00380818
Gmin = 1.17153e-11
vernier = 0.00507757
vernier = 0.00253879
vernier = 0.00338505
Gmin = 1.16461e-11
vernier = 0.00451339
Gmin = 1.15317e-11
vernier = 0.00601786
vernier = 0.00300893
vernier = 0.0040119
Gmin = 1.14525e-11
vernier = 0.0053492
vernier = 0.0026746
Gmin = 1.13762e-11
vernier = 0.00356614
vernier = 0.00475485
Gmin = 1.12678e-11
vernier = 0.00633979
vernier = 0.0031699
vernier = 0.00158495
Gmin = 1.12099e-11
vernier = 0.00211326
vernier = 0.00281768
Gmin = 1.11465e-11
vernier = 0.00375691
vernier = 0.00500921
Gmin = 1.10466e-11
vernier = 0.00250461
vernier = 0.0012523
vernier = 0.00166974
Gmin = 1.10293e-11
vernier = 0.00222632
vernier = 0.00296842
Gmin = 1.09707e-11
vernier = 0.00395789
Gmin = 1.08762e-11
vernier = 0.00527719
vernier = 0.0026386
vernier = 0.0013193
vernier = 0.00175906
Gmin = 1.08427e-11
vernier = 0.00234542
Gmin = 1.07873e-11
vernier = 0.00312722
vernier = 0.00416963
Gmin = 1.0697e-11
vernier = 0.0055595
vernier = 0.00277975
vernier = 0.00138988
Gmin = 1.06488e-11
vernier = 0.00185317
vernier = 0.000926584
vernier = 0.00123544
Gmin = 1.06262e-11
vernier = 0.00164726
Gmin = 1.05869e-11
vernier = 0.00219634
vernier = 0.00292846
Gmin = 1.05213e-11
vernier = 0.00390461
vernier = 0.00520615
vernier = 0.00260307
Gmin = 1.04446e-11
vernier = 0.00347076
Gmin = 1.03656e-11
vernier = 0.00462768
vernier = 0.00617024
vernier = 0.00308512
vernier = 0.00154256
Gmin = 1.0285e-11
vernier = 0.00205675
Gmin = 1.02389e-11
vernier = 0.00274233
vernier = 0.00365644
Gmin = 1.01637e-11
vernier = 0.00487525
vernier = 0.00650033
Gmin = 1.00458e-11
vernier = 0.00325016
vernier = 0.00433355
Gmin = 9.97799e-12
vernier = 0.00577807
vernier = 0.00288903
vernier = 0.00385204
Gmin = 9.91098e-12
vernier = 0.00513606
vernier = 0.00256803
Gmin = 9.84442e-12
vernier = 0.00342404
vernier = 0.00456538
Gmin = 9.75916e-12
vernier = 0.00608718
vernier = 0.00304359
vernier = 0.00152179
Gmin = 9.70365e-12
vernier = 0.00202906
vernier = 0.00270541
Gmin = 9.65375e-12
vernier = 0.00360721
Gmin = 9.57575e-12
vernier = 0.00480961
vernier = 0.00641282
vernier = 0.00320641
vernier = 0.0016032
Gmin = 9.50315e-12
vernier = 0.00213761
Gmin = 9.45756e-12
vernier = 0.00285014
vernier = 0.00380019
Gmin = 9.38152e-12
vernier = 0.00506691
vernier = 0.00253346
vernier = 0.00337794
Gmin = 9.32625e-12
vernier = 0.00450392
Gmin = 9.23486e-12
vernier = 0.00600523
vernier = 0.00300261
vernier = 0.00400348
Gmin = 9.17156e-12
vernier = 0.00533798
vernier = 0.00266899
Gmin = 9.1106e-12
vernier = 0.00355865
vernier = 0.00474487
Gmin = 9.02392e-12
vernier = 0.00632649
vernier = 0.00316324
vernier = 0.00158162
Gmin = 8.97768e-12
vernier = 0.00210883
vernier = 0.00281177
Gmin = 8.92696e-12
vernier = 0.00374903
vernier = 0.0049987
Gmin = 8.84717e-12
vernier = 0.00249935
vernier = 0.00333247
Gmin = 8.80124e-12
vernier = 0.00444329
vernier = 0.00592438
vernier = 0.00296219
Gmin = 8.72825e-12
vernier = 0.00394959
Gmin = 8.6532e-12
vernier = 0.00526611
vernier = 0.00263306
vernier = 0.00351074
Gmin = 8.60117e-12
vernier = 0.00468099
Gmin = 8.5111e-12
vernier = 0.00624131
vernier = 0.00312066
vernier = 0.00156033
vernier = 0.00208044
Gmin = 8.48569e-12
vernier = 0.00277392
Gmin = 8.43291e-12
vernier = 0.00369855
vernier = 0.0049314
vernier = 0.0024657
vernier = 0.00123285
Gmin = 8.38369e-12
vernier = 0.0016438
Gmin = 8.35275e-12
vernier = 0.00219173
vernier = 0.00292231
Gmin = 8.30105e-12
vernier = 0.00389641
vernier = 0.00519522
vernier = 0.00259761
Gmin = 8.24066e-12
vernier = 0.00346348
Gmin = 8.17848e-12
vernier = 0.00461797
vernier = 0.00615729
vernier = 0.00307865
Gmin = 8.10879e-12
vernier = 0.00410486
Gmin = 8.03428e-12
vernier = 0.00547314
vernier = 0.00273657
vernier = 0.00364876
Gmin = 7.98498e-12
vernier = 0.00486501
vernier = 0.00648668
Gmin = 7.89251e-12
vernier = 0.00324334
vernier = 0.00162167
vernier = 0.00216223
Gmin = 7.87652e-12
vernier = 0.00288297
vernier = 0.00384396
Gmin = 7.82232e-12
vernier = 0.00512528
vernier = 0.00256264
vernier = 0.00128132
Gmin = 7.77986e-12
vernier = 0.00170843
vernier = 0.0022779
Gmin = 7.74809e-12
vernier = 0.0030372
Gmin = 7.6968e-12
vernier = 0.0040496
vernier = 0.00539946
vernier = 0.00269973
Gmin = 7.63925e-12
vernier = 0.00359964
Gmin = 7.57765e-12
vernier = 0.00479952
vernier = 0.00639936
vernier = 0.00319968
vernier = 0.00159984
Gmin = 7.52032e-12
vernier = 0.00213312
Gmin = 7.48432e-12
vernier = 0.00284416
vernier = 0.00379221
Gmin = 7.42428e-12
vernier = 0.00505628
vernier = 0.00252814
vernier = 0.00337085
Gmin = 7.38063e-12
vernier = 0.00449447
Gmin = 7.30845e-12
vernier = 0.00599262
vernier = 0.00299631
vernier = 0.00399508
Gmin = 7.25846e-12
vernier = 0.00532677
vernier = 0.00266339
Gmin = 7.21032e-12
vernier = 0.00355118
vernier = 0.0047349
Gmin = 7.14186e-12
vernier = 0.0063132
vernier = 0.0031566
vernier = 0.0015783
Gmin = 7.10534e-12
vernier = 0.0021044
vernier = 0.00280587
Gmin = 7.06528e-12
vernier = 0.00374116
vernier = 0.00498821
Gmin = 7.00226e-12
vernier = 0.0024941
vernier = 0.00332547
Gmin = 6.96599e-12
vernier = 0.00443396
vernier = 0.00591194
vernier = 0.00295597
Gmin = 6.90834e-12
vernier = 0.00394129
Gmin = 6.84906e-12
vernier = 0.00525506
vernier = 0.00262753
vernier = 0.00350337
Gmin = 6.80796e-12
vernier = 0.00467116
Gmin = 6.73682e-12
vernier = 0.00622821
vernier = 0.00311411
vernier = 0.00155705
vernier = 0.00207607
Gmin = 6.71675e-12
vernier = 0.00276809
Gmin = 6.67506e-12
vernier = 0.00369079
vernier = 0.00492105
Gmin = 6.60566e-12
vernier = 0.0065614
vernier = 0.0032807
vernier = 0.00437427
Gmin = 6.55531e-12
vernier = 0.00583235
vernier = 0.00291618
Gmin = 6.50535e-12
vernier = 0.00388823
vernier = 0.00518431
vernier = 0.00259216
Gmin = 6.45811e-12
vernier = 0.00345621
Gmin = 6.40949e-12
vernier = 0.00460827
vernier = 0.00614436
vernier = 0.00307218
Gmin = 6.35499e-12
vernier = 0.00409624
Gmin = 6.29671e-12
vernier = 0.00546165
vernier = 0.00273083
vernier = 0.0036411
Gmin = 6.25816e-12
vernier = 0.0048548
vernier = 0.00647307
Gmin = 6.18583e-12
vernier = 0.00323653
vernier = 0.00161827
vernier = 0.000809133
vernier = 0.00107884
Gmin = 6.18624e-12
vernier = 0.00143846
Gmin = 6.16626e-12
vernier = 0.00191794
vernier = 0.00255726
Gmin = 6.13285e-12
vernier = 0.00340968
vernier = 0.00454624
Gmin = 6.07995e-12
vernier = 0.00606165
vernier = 0.00303082
vernier = 0.00151541
Gmin = 6.04552e-12
vernier = 0.00202055
vernier = 0.00269406
Gmin = 6.01456e-12
vernier = 0.00359208
Gmin = 5.96616e-12
vernier = 0.00478944
vernier = 0.00638592
vernier = 0.00319296
vernier = 0.00159648
Gmin = 5.92111e-12
vernier = 0.00212864
Gmin = 5.89283e-12
vernier = 0.00283819
vernier = 0.00378425
Gmin = 5.84565e-12
vernier = 0.00504566
vernier = 0.00252283
vernier = 0.00336377
Gmin = 5.81136e-12
vernier = 0.00448503
Gmin = 5.75465e-12
vernier = 0.00598004
vernier = 0.00299002
vernier = 0.00149501
vernier = 0.00199335
Gmin = 5.73461e-12
vernier = 0.00265779
Gmin = 5.70138e-12
vernier = 0.00354372
vernier = 0.00472497
Gmin = 5.64737e-12
vernier = 0.00629995
vernier = 0.00314998
vernier = 0.00157499
Gmin = 5.61855e-12
vernier = 0.00209998
vernier = 0.00279998
Gmin = 5.58693e-12
vernier = 0.0037333
vernier = 0.00497774
Gmin = 5.53721e-12
vernier = 0.00248887
vernier = 0.00331849
Gmin = 5.50858e-12
vernier = 0.00442465
vernier = 0.00589953
vernier = 0.00294977
Gmin = 5.46309e-12
vernier = 0.00393302
Gmin = 5.41631e-12
vernier = 0.00524403
vernier = 0.00262201
vernier = 0.00131101
vernier = 0.00174801
Gmin = 5.39977e-12
vernier = 0.00233068
Gmin = 5.37232e-12
vernier = 0.00310757
vernier = 0.00414342
Gmin = 5.32766e-12
vernier = 0.00552456
vernier = 0.00276228
vernier = 0.00138114
Gmin = 5.30381e-12
vernier = 0.00184152
vernier = 0.000920761
vernier = 0.00122768
Gmin = 5.29263e-12
vernier = 0.00163691
Gmin = 5.27318e-12
vernier = 0.00218254
vernier = 0.00291006
Gmin = 5.24068e-12
vernier = 0.00388007
vernier = 0.00517343
vernier = 0.00258671
Gmin = 5.20271e-12
vernier = 0.00344895
Gmin = 5.16362e-12
vernier = 0.0045986
vernier = 0.00613147
vernier = 0.00306573
Gmin = 5.1198e-12
vernier = 0.00408764
Gmin = 5.07295e-12
vernier = 0.00545019
vernier = 0.00272509
vernier = 0.00363346
Gmin = 5.04196e-12
vernier = 0.00484461
vernier = 0.00645948
Gmin = 4.98381e-12
vernier = 0.00322974
vernier = 0.00161487
vernier = 0.00215316
Gmin = 4.97375e-12
vernier = 0.00287088
vernier = 0.00382784
Gmin = 4.93967e-12
vernier = 0.00510378
vernier = 0.00255189
Gmin = 4.90671e-12
vernier = 0.00340252
vernier = 0.00453669
Gmin = 4.86448e-12
vernier = 0.00604892
vernier = 0.00302446
vernier = 0.00151223
Gmin = 4.83698e-12
vernier = 0.00201631
vernier = 0.00268841
Gmin = 4.81226e-12
vernier = 0.00358454
Gmin = 4.77362e-12
vernier = 0.00477939
vernier = 0.00637252
vernier = 0.00318626
vernier = 0.00159313
Gmin = 4.73766e-12
vernier = 0.00212417
Gmin = 4.71507e-12
vernier = 0.00283223
vernier = 0.0037763
Gmin = 4.6774e-12
vernier = 0.00503507
vernier = 0.00251754
vernier = 0.00125877
Gmin = 4.66125e-12
vernier = 0.00167836
vernier = 0.00223781
Gmin = 4.63914e-12
vernier = 0.00298374
vernier = 0.00397832
Gmin = 4.6041e-12
vernier = 0.00530443
vernier = 0.00265222
Gmin = 4.57369e-12
vernier = 0.00353629
vernier = 0.00471505
Gmin = 4.53045e-12
vernier = 0.00628673
vernier = 0.00314336
vernier = 0.00157168
Gmin = 4.50738e-12
vernier = 0.00209558
vernier = 0.0027941
Gmin = 4.48207e-12
vernier = 0.00372547
vernier = 0.00496729
Gmin = 4.44226e-12
vernier = 0.00248364
vernier = 0.00331152
Gmin = 4.41934e-12
vernier = 0.00441536
vernier = 0.00588715
vernier = 0.00294357
Gmin = 4.38293e-12
vernier = 0.00392477
Gmin = 4.34547e-12
vernier = 0.00523302
vernier = 0.00697736
vernier = 0.00348868
Gmin = 4.30354e-12
vernier = 0.00465157
Gmin = 4.25876e-12
vernier = 0.00620209
vernier = 0.00310105
vernier = 0.00155052
vernier = 0.00206736
Gmin = 4.24612e-12
vernier = 0.00275648
Gmin = 4.21988e-12
vernier = 0.00367531
vernier = 0.00490041
Gmin = 4.17619e-12
vernier = 0.00653388
vernier = 0.00326694
vernier = 0.00435592
Gmin = 4.14449e-12
vernier = 0.00580789
vernier = 0.00290395
Gmin = 4.11303e-12
vernier = 0.00387193
vernier = 0.00516257
vernier = 0.00258128
Gmin = 4.08329e-12
vernier = 0.00344171
Gmin = 4.05268e-12
vernier = 0.00458895
vernier = 0.0061186
vernier = 0.0030593
Gmin = 4.01836e-12
vernier = 0.00407906
Gmin = 3.98167e-12
vernier = 0.00543875
vernier = 0.00271937
vernier = 0.00362583
Gmin = 3.95739e-12
vernier = 0.00483444
vernier = 0.00644592
Gmin = 3.91184e-12
vernier = 0.00322296
vernier = 0.00161148
vernier = 0.00080574
vernier = 0.00107432
Gmin = 3.9121e-12
vernier = 0.00143243
Gmin = 3.89951e-12
vernier = 0.0019099
vernier = 0.00095495
vernier = 0.00127327
Gmin = 3.89115e-12
vernier = 0.00169769
vernier = 0.00226358
Gmin = 3.87535e-12
vernier = 0.00301811
Gmin = 3.84986e-12
vernier = 0.00402415
vernier = 0.00536553
vernier = 0.00268276
Gmin = 3.82126e-12
vernier = 0.00357702
Gmin = 3.79064e-12
vernier = 0.00476936
vernier = 0.00635914
vernier = 0.00317957
vernier = 0.00158979
Gmin = 3.76214e-12
vernier = 0.00211971
Gmin = 3.74424e-12
vernier = 0.00282628
vernier = 0.00376838
Gmin = 3.71439e-12
vernier = 0.0050245
vernier = 0.00251225
vernier = 0.00334967
Gmin = 3.69269e-12
vernier = 0.00446622
Gmin = 3.6568e-12
vernier = 0.00595496
vernier = 0.00297748
vernier = 0.00396997
Gmin = 3.63195e-12
vernier = 0.0052933
vernier = 0.00264665
Gmin = 3.60801e-12
vernier = 0.00352886
vernier = 0.00470515
Gmin = 3.57397e-12
vernier = 0.00627353
vernier = 0.00313677
vernier = 0.00156838
Gmin = 3.5558e-12
vernier = 0.00209118
vernier = 0.00278823
Gmin = 3.53588e-12
vernier = 0.00371764
vernier = 0.00495686
Gmin = 3.50454e-12
vernier = 0.00247843
vernier = 0.00330457
Gmin = 3.4865e-12
vernier = 0.00440609
vernier = 0.00587479
vernier = 0.0029374
Gmin = 3.45783e-12
vernier = 0.00391653
Gmin = 3.42834e-12
vernier = 0.00522203
vernier = 0.00261102
vernier = 0.00348136
Gmin = 3.4079e-12
vernier = 0.00464181
Gmin = 3.37251e-12
vernier = 0.00618907
vernier = 0.00309454
vernier = 0.00412605
Gmin = 3.34912e-12
vernier = 0.0055014
vernier = 0.0027507
Gmin = 3.32732e-12
vernier = 0.0036676
vernier = 0.00489013
Gmin = 3.29294e-12
vernier = 0.00652017
vernier = 0.00326008
vernier = 0.00434678
Gmin = 3.268e-12
vernier = 0.0057957
vernier = 0.00289785
Gmin = 3.24325e-12
vernier = 0.0038638
vernier = 0.00515173
vernier = 0.00257587
Gmin = 3.21985e-12
vernier = 0.00128793
vernier = 0.00171724
Gmin = 3.20916e-12
vernier = 0.00228966
vernier = 0.00305288
Gmin = 3.19054e-12
vernier = 0.0040705
Gmin = 3.16147e-12
vernier = 0.00542733
vernier = 0.00271367
vernier = 0.00361822
Gmin = 3.14223e-12
vernier = 0.00482429
vernier = 0.00643239
Gmin = 3.10614e-12
vernier = 0.00321619
vernier = 0.0016081
vernier = 0.000804049
vernier = 0.00107206
Gmin = 3.10635e-12
vernier = 0.00142942
Gmin = 3.09637e-12
vernier = 0.00190589
vernier = 0.000952946
vernier = 0.00127059
Gmin = 3.08974e-12
vernier = 0.00169412
vernier = 0.00225883
Gmin = 3.07723e-12
vernier = 0.00301178
Gmin = 3.05703e-12
vernier = 0.0040157
vernier = 0.00535427
vernier = 0.00267713
Gmin = 3.03436e-12
vernier = 0.00356951
Gmin = 3.0101e-12
vernier = 0.00475935
vernier = 0.00634579
vernier = 0.0031729
vernier = 0.00158645
Gmin = 2.98751e-12
vernier = 0.00211526
Gmin = 2.97333e-12
vernier = 0.00282035
vernier = 0.00376047
Gmin = 2.94968e-12
vernier = 0.00501395
vernier = 0.00668527
vernier = 0.00334264
Gmin = 2.92209e-12
vernier = 0.00167132
vernier = 0.00222842
Gmin = 2.90951e-12
vernier = 0.00297123
vernier = 0.00396164
Gmin = 2.88763e-12
vernier = 0.00528218
vernier = 0.00264109
Gmin = 2.86863e-12
vernier = 0.00352146
vernier = 0.00469527
Gmin = 2.84162e-12
vernier = 0.00626036
vernier = 0.00313018
Gmin = 2.82059e-12
vernier = 0.00417357
vernier = 0.00556476
vernier = 0.00278238
vernier = 0.00139119
Gmin = 2.80202e-12
vernier = 0.00185492
vernier = 0.00092746
Gmin = 2.79553e-12
vernier = 0.00123661
vernier = 0.00164882
Gmin = 2.78626e-12
vernier = 0.00219842
vernier = 0.00293123
Gmin = 2.77162e-12
vernier = 0.0039083
Gmin = 2.74804e-12
vernier = 0.00521107
vernier = 0.00260554
vernier = 0.00347405
Gmin = 2.73169e-12
vernier = 0.00463206
Gmin = 2.70338e-12
vernier = 0.00617608
vernier = 0.00308804
vernier = 0.00411739
Gmin = 2.68467e-12
vernier = 0.00548985
vernier = 0.00274492
Gmin = 2.66723e-12
vernier = 0.0036599
vernier = 0.00487986
Gmin = 2.63973e-12
vernier = 0.00650648
vernier = 0.00325324
vernier = 0.00433765
Gmin = 2.61978e-12
vernier = 0.00578354
vernier = 0.00289177
Gmin = 2.59998e-12
vernier = 0.00385569
vernier = 0.00514092
vernier = 0.00257046
Gmin = 2.58126e-12
vernier = 0.00342728
Gmin = 2.56198e-12
vernier = 0.0045697
vernier = 0.00609293
vernier = 0.00304647
Gmin = 2.54038e-12
vernier = 0.00406196
Gmin = 2.51728e-12
vernier = 0.00541594
vernier = 0.00270797
vernier = 0.00361063
Gmin = 2.50199e-12
vernier = 0.00481417
vernier = 0.00641889
Gmin = 2.47332e-12
vernier = 0.00320944
vernier = 0.00160472
vernier = 0.00213963
Gmin = 2.46836e-12
vernier = 0.00285284
vernier = 0.00380378
Gmin = 2.45155e-12
vernier = 0.00507171
vernier = 0.00253585
vernier = 0.00126793
Gmin = 2.43838e-12
vernier = 0.00169057
vernier = 0.00225409
Gmin = 2.42853e-12
vernier = 0.00300545
Gmin = 2.41262e-12
vernier = 0.00400727
vernier = 0.00534303
vernier = 0.00267151
Gmin = 2.39477e-12
vernier = 0.00356202
Gmin = 2.37566e-12
vernier = 0.00474935
vernier = 0.00633247
vernier = 0.00316624
vernier = 0.00158312
Gmin = 2.35787e-12
vernier = 0.00211082
Gmin = 2.34671e-12
vernier = 0.00281443
vernier = 0.00375257
Gmin = 2.32807e-12
vernier = 0.00500343
vernier = 0.00250171
vernier = 0.00333562
Gmin = 2.31453e-12
vernier = 0.00444749
Gmin = 2.29213e-12
vernier = 0.00592999
vernier = 0.00296499
vernier = 0.00395332
Gmin = 2.27662e-12
vernier = 0.0052711
vernier = 0.00263555
Gmin = 2.26167e-12
vernier = 0.00351406
vernier = 0.00468542
Gmin = 2.24042e-12
vernier = 0.00624722
vernier = 0.00312361
vernier = 0.0015618
Gmin = 2.22909e-12
vernier = 0.00208241
vernier = 0.00277654
Gmin = 2.21665e-12
vernier = 0.00370205
vernier = 0.00493607
Gmin = 2.19708e-12
vernier = 0.00658142
vernier = 0.00329071
vernier = 0.00164536
Gmin = 2.18178e-12
vernier = 0.00219381
vernier = 0.00292508
Gmin = 2.17035e-12
vernier = 0.0039001
Gmin = 2.15192e-12
vernier = 0.00520013
vernier = 0.00260007
vernier = 0.00130003
vernier = 0.00173338
Gmin = 2.1454e-12
vernier = 0.00231117
Gmin = 2.13459e-12
vernier = 0.00308156
vernier = 0.00410874
Gmin = 2.11699e-12
vernier = 0.00547832
vernier = 0.00273916
Gmin = 2.10327e-12
vernier = 0.00365221
vernier = 0.00486962
Gmin = 2.08163e-12
vernier = 0.00649282
vernier = 0.00324641
vernier = 0.00432855
Gmin = 2.06593e-12
vernier = 0.00577139
vernier = 0.0028857
Gmin = 2.05034e-12
vernier = 0.0038476
vernier = 0.00513013
Gmin = 2.0304e-12
vernier = 0.00684017
vernier = 0.00342008
vernier = 0.00171004
Gmin = 2.01743e-12
vernier = 0.00228005
vernier = 0.00304007
Gmin = 2.00577e-12
vernier = 0.00405343
Gmin = 1.98757e-12
vernier = 0.00540457
vernier = 0.00270229
vernier = 0.00360305
Gmin = 1.97553e-12
vernier = 0.00480406
vernier = 0.00640541
Gmin = 1.95294e-12
vernier = 0.00320271
vernier = 0.00160135
vernier = 0.00213514
Gmin = 1.94903e-12
vernier = 0.00284685
vernier = 0.0037958
Gmin = 1.93579e-12
vernier = 0.00506106
vernier = 0.00253053
Gmin = 1.92297e-12
vernier = 0.00337404
vernier = 0.00449872
Gmin = 1.90656e-12
vernier = 0.00599829
vernier = 0.00299914
Gmin = 1.89233e-12
vernier = 0.00399886
vernier = 0.00533181
vernier = 0.00266591
Gmin = 1.87835e-12
vernier = 0.00355454
Gmin = 1.8634e-12
vernier = 0.00473938
vernier = 0.00631918
vernier = 0.00315959
vernier = 0.00157979
Gmin = 1.84948e-12
vernier = 0.00210639
Gmin = 1.84073e-12
vernier = 0.00280852
vernier = 0.0037447
Gmin = 1.82615e-12
vernier = 0.00499293
vernier = 0.00249646
vernier = 0.00332862
Gmin = 1.81555e-12
vernier = 0.00443815
Gmin = 1.79801e-12
vernier = 0.00591754
vernier = 0.00295877
vernier = 0.00147938
vernier = 0.00197251
Gmin = 1.79182e-12
vernier = 0.00263002
Gmin = 1.78154e-12
vernier = 0.00350669
vernier = 0.00467558
Gmin = 1.76484e-12
vernier = 0.00623411
vernier = 0.00311705
vernier = 0.00155853
Gmin = 1.75593e-12
vernier = 0.00207803
vernier = 0.00277071
Gmin = 1.74615e-12
vernier = 0.00369428
vernier = 0.00492571
Gmin = 1.73077e-12
vernier = 0.00246285
vernier = 0.00123143
vernier = 0.0016419
Gmin = 1.72811e-12
vernier = 0.0021892
vernier = 0.00291894
Gmin = 1.71907e-12
vernier = 0.00389191
Gmin = 1.70451e-12
vernier = 0.00518922
vernier = 0.00259461
vernier = 0.0012973
vernier = 0.00172974
Gmin = 1.69936e-12
vernier = 0.00230632
Gmin = 1.69081e-12
vernier = 0.00307509
vernier = 0.00410012
Gmin = 1.6769e-12
vernier = 0.00546682
vernier = 0.00273341
Gmin = 1.66605e-12
vernier = 0.00364455
vernier = 0.0048594
Gmin = 1.64894e-12
vernier = 0.00647919
vernier = 0.0032396
vernier = 0.0016198
Gmin = 1.64162e-12
vernier = 0.00215973
vernier = 0.00287964
Gmin = 1.63161e-12
vernier = 0.00383952
vernier = 0.00511936
Gmin = 1.61577e-12
vernier = 0.00682581
vernier = 0.0034129
vernier = 0.00170645
Gmin = 1.60547e-12
vernier = 0.00227527
vernier = 0.00303369
Gmin = 1.59621e-12
vernier = 0.00404492
Gmin = 1.58176e-12
vernier = 0.00539323
vernier = 0.00269661
vernier = 0.00359548
Gmin = 1.57219e-12
vernier = 0.00479398
vernier = 0.00639197
Gmin = 1.55425e-12
vernier = 0.00319598
vernier = 0.00159799
vernier = 0.00213065
Gmin = 1.55115e-12
vernier = 0.00284087
vernier = 0.00378783
Gmin = 1.54063e-12
vernier = 0.00505044
vernier = 0.00252522
Gmin = 1.53046e-12
vernier = 0.00336696
vernier = 0.00448928
Gmin = 1.51742e-12
vernier = 0.0059857
vernier = 0.00299285
Gmin = 1.50611e-12
vernier = 0.00399046
vernier = 0.00532062
vernier = 0.00266031
Gmin = 1.49502e-12
vernier = 0.00354708
Gmin = 1.48314e-12
vernier = 0.00472944
vernier = 0.00630591
vernier = 0.00315296
vernier = 0.00157648
vernier = 0.000788239
Gmin = 1.47266e-12
vernier = 0.00105099
Gmin = 1.46928e-12
vernier = 0.00140131
vernier = 0.00186842
vernier = 0.000934209
Gmin = 1.46547e-12
vernier = 0.00124561
Gmin = 1.46137e-12
vernier = 0.00166081
vernier = 0.00221442
Gmin = 1.45451e-12
vernier = 0.00295256
vernier = 0.00393674
Gmin = 1.44364e-12
vernier = 0.00524899
vernier = 0.00262449
Gmin = 1.4342e-12
vernier = 0.00349933
vernier = 0.00466577
Gmin = 1.42078e-12
vernier = 0.00622102
vernier = 0.00311051
vernier = 0.00155525
Gmin = 1.41362e-12
vernier = 0.00207367
vernier = 0.0027649
Gmin = 1.40577e-12
vernier = 0.00368653
vernier = 0.00491537
Gmin = 1.39341e-12
vernier = 0.00245768
vernier = 0.00122884
vernier = 0.00163846
Gmin = 1.39127e-12
vernier = 0.00218461
vernier = 0.00291281
Gmin = 1.38401e-12
vernier = 0.00388374
Gmin = 1.37231e-12
vernier = 0.00517832
vernier = 0.00258916
vernier = 0.00129458
vernier = 0.00064729
Gmin = 1.36987e-12
vernier = 0.000863054
vernier = 0.00115074
Gmin = 1.36652e-12
vernier = 0.00153432
vernier = 0.00204576
Gmin = 1.36121e-12
vernier = 0.00272767
Gmin = 1.35288e-12
vernier = 0.0036369
vernier = 0.00484919
Gmin = 1.33902e-12
vernier = 0.00646559
vernier = 0.0032328
vernier = 0.0016164
Gmin = 1.33308e-12
vernier = 0.0021552
vernier = 0.00287359
Gmin = 1.32497e-12
vernier = 0.00383146
vernier = 0.00510861
vernier = 0.00255431
Gmin = 1.31549e-12
vernier = 0.00340574
Gmin = 1.30573e-12
vernier = 0.00454098
vernier = 0.00605464
vernier = 0.00302732
vernier = 0.00151366
Gmin = 1.29577e-12
vernier = 0.00201821
Gmin = 1.29006e-12
vernier = 0.00269095
vernier = 0.00358793
Gmin = 1.28077e-12
vernier = 0.00478391
vernier = 0.00637855
Gmin = 1.26618e-12
vernier = 0.00318927
vernier = 0.00159464
vernier = 0.00212618
Gmin = 1.26366e-12
vernier = 0.00283491
vernier = 0.00377988
Gmin = 1.25511e-12
vernier = 0.00503984
vernier = 0.00251992
Gmin = 1.24684e-12
vernier = 0.00335989
vernier = 0.00447985
Gmin = 1.23624e-12
vernier = 0.00597313
vernier = 0.00298657
vernier = 0.00149328
Gmin = 1.22934e-12
vernier = 0.00199104
vernier = 0.00265472
Gmin = 1.22313e-12
vernier = 0.00353963
Gmin = 1.21344e-12
vernier = 0.00471951
vernier = 0.00629268
vernier = 0.00314634
vernier = 0.00157317
vernier = 0.000786584
Gmin = 1.20488e-12
vernier = 0.00104878
Gmin = 1.20212e-12
vernier = 0.00139837
vernier = 0.0018645
vernier = 0.000932248
Gmin = 1.19901e-12
vernier = 0.001243
Gmin = 1.19566e-12
vernier = 0.00165733
vernier = 0.00220977
Gmin = 1.19006e-12
vernier = 0.00294636
vernier = 0.00392848
Gmin = 1.18118e-12
vernier = 0.00523797
vernier = 0.00261899
Gmin = 1.17348e-12
vernier = 0.00349198
vernier = 0.00465597
Gmin = 1.16252e-12
vernier = 0.00620796
vernier = 0.00310398
vernier = 0.00155199
Gmin = 1.15668e-12
vernier = 0.00206932
vernier = 0.00275909
Gmin = 1.15026e-12
vernier = 0.00367879
vernier = 0.00490505
Gmin = 1.14017e-12
vernier = 0.00245253
vernier = 0.00122626
vernier = 0.00163502
Gmin = 1.13843e-12
vernier = 0.00218002
vernier = 0.00290669
Gmin = 1.1325e-12
vernier = 0.00387559
Gmin = 1.12294e-12
vernier = 0.00516745
vernier = 0.00258373
vernier = 0.00344497
Gmin = 1.11632e-12
vernier = 0.00459329
Gmin = 1.10484e-12
vernier = 0.00612439
vernier = 0.00306219
vernier = 0.00408292
Gmin = 1.09726e-12
vernier = 0.0054439
vernier = 0.00272195
Gmin = 1.09019e-12
vernier = 0.00362926
vernier = 0.00483902
Gmin = 1.07905e-12
vernier = 0.00645202
vernier = 0.00322601
vernier = 0.001613
Gmin = 1.07427e-12
vernier = 0.00215067
vernier = 0.00286756
Gmin = 1.06775e-12
vernier = 0.00382342
vernier = 0.00509789
vernier = 0.00254894
Gmin = 1.06012e-12
vernier = 0.00127447
vernier = 0.0016993
Gmin = 1.05664e-12
vernier = 0.00226573
vernier = 0.00302097
Gmin = 1.05058e-12
vernier = 0.00402796
Gmin = 1.0411e-12
vernier = 0.00537061
vernier = 0.0026853
vernier = 0.0035804
Gmin = 1.03483e-12
vernier = 0.00477387
vernier = 0.00636516
Gmin = 1.02307e-12
vernier = 0.00318258
vernier = 0.00159129
vernier = 0.00212172
Gmin = 1.02104e-12
vernier = 0.00282896
vernier = 0.00377194
Gmin = 1.01414e-12
vernier = 0.00502926
vernier = 0.00251463
Gmin = 1.00747e-12
vernier = 0.00335284
vernier = 0.00447045
Gmin = 9.98929e-13
vernier = 0.00596059
vernier = 0.0029803
Gmin = 9.91517e-13
vernier = 0.00397373
vernier = 0.0052983
vernier = 0.00264915
Gmin = 9.84242e-13
vernier = 0.0035322
Gmin = 9.76454e-13
vernier = 0.0047096
vernier = 0.00627947
vernier = 0.00313973
vernier = 0.00156987
vernier = 0.000784933
Gmin = 9.69584e-13
vernier = 0.00104658
Gmin = 9.67367e-13
vernier = 0.00139544
vernier = 0.00186058
vernier = 0.000930291
Gmin = 9.64868e-13
vernier = 0.00124039
Gmin = 9.62179e-13
vernier = 0.00165385
vernier = 0.00220513
Gmin = 9.57682e-13
vernier = 0.00294017
vernier = 0.00392023
Gmin = 9.50555e-13
vernier = 0.00522697
vernier = 0.00261349
Gmin = 9.44367e-13
vernier = 0.00348465
vernier = 0.0046462
Gmin = 9.35568e-13
vernier = 0.00619493
vernier = 0.00309746
Gmin = 9.28714e-13
vernier = 0.00412995
vernier = 0.0055066
vernier = 0.0027533
vernier = 0.00137665
Gmin = 9.22664e-13
vernier = 0.00183553
vernier = 0.000917767
Gmin = 9.2055e-13
vernier = 0.00122369
vernier = 0.00163158
Gmin = 9.17528e-13
vernier = 0.00217544
vernier = 0.00290059
Gmin = 9.1276e-13
vernier = 0.00386746
Gmin = 9.05074e-13
vernier = 0.00515661
vernier = 0.0025783
vernier = 0.00343774
Gmin = 8.99744e-13
vernier = 0.00458365
Gmin = 8.90517e-13
vernier = 0.00611153
vernier = 0.00305576
vernier = 0.00407435
[...]
vernier = 0.0047389
Gmin = 1.02549e-31
vernier = 0.00631854
vernier = 0.00315927
vernier = 0.00157963
vernier = 0.00210618
Gmin = 1.02239e-31
vernier = 0.00280824
Gmin = 1.01595e-31
vernier = 0.00374432
vernier = 0.00499242
vernier = 0.00249621
Gmin = 1.00901e-31
vernier = 0.00332828
vernier = 0.0044377
Gmin = 1.001e-31
Terminal Gmin changed to 1e-32
vernier = 0.00221885
vernier = 0.00110943
vernier = 0.00147923
Gmin = 9.99241e-32
vernier = 0.00197231
Gmin = 9.9494e-32
vernier = 0.00262975
vernier = 0.00350633
Gmin = 9.87935e-32
vernier = 0.00467511
vernier = 0.00623347
Gmin = 9.76938e-32
vernier = 0.00311674
vernier = 0.00155837
vernier = 0.00207782
Gmin = 9.75036e-32
vernier = 0.00277043
vernier = 0.00369391
Gmin = 9.68588e-32
vernier = 0.00492521
Gmin = 9.58214e-32
vernier = 0.00656694
vernier = 0.00328347
vernier = 0.00164174
vernier = 0.00218898
Gmin = 9.54552e-32
vernier = 0.00291864
Gmin = 9.48479e-32
vernier = 0.00389152
vernier = 0.00518869
vernier = 0.00259435
vernier = 0.00129717
Gmin = 9.42274e-32
vernier = 0.00172956
Gmin = 9.38716e-32
vernier = 0.00230608
vernier = 0.00307478
Gmin = 9.32918e-32
vernier = 0.0040997
vernier = 0.00546627
Gmin = 9.23804e-32
vernier = 0.00273313
vernier = 0.00364418
Gmin = 9.18561e-32
vernier = 0.0048589
vernier = 0.00647854
vernier = 0.00323927
Gmin = 9.10235e-32
vernier = 0.00431902
Gmin = 9.0168e-32
vernier = 0.00575869
vernier = 0.00287935
vernier = 0.00383913
Gmin = 8.95752e-32
vernier = 0.00511884
Gmin = 8.85501e-32
vernier = 0.00682511
vernier = 0.00341256
vernier = 0.00170628
vernier = 0.00227504
Gmin = 8.8261e-32
vernier = 0.00303338
Gmin = 8.76609e-32
vernier = 0.00404451
vernier = 0.00539268
vernier = 0.00269634
Gmin = 8.70136e-32
vernier = 0.00359512
vernier = 0.00479349
Gmin = 8.62677e-32
vernier = 0.00639132
vernier = 0.00319566
vernier = 0.00159783
Gmin = 8.56841e-32
vernier = 0.00213044
vernier = 0.00284058
Gmin = 8.5248e-32
vernier = 0.00378744
Gmin = 8.4545e-32
vernier = 0.00504992
vernier = 0.00252496
vernier = 0.00336662
Gmin = 8.40573e-32
vernier = 0.00448882
Gmin = 8.32131e-32
vernier = 0.00598509
vernier = 0.00299255
vernier = 0.00149627
vernier = 0.00199503
Gmin = 8.29748e-32
vernier = 0.00266004
Gmin = 8.24799e-32
vernier = 0.00354672
vernier = 0.00472896
Gmin = 8.16556e-32
vernier = 0.00630527
vernier = 0.00315264
vernier = 0.00157632
Gmin = 8.13025e-32
vernier = 0.00210176
vernier = 0.00280234
Gmin = 8.082e-32
vernier = 0.00373646
vernier = 0.00498194
vernier = 0.00249097
Gmin = 8.0256e-32
vernier = 0.00332129
Gmin = 7.96752e-32
vernier = 0.00442839
vernier = 0.00590452
vernier = 0.00295226
Gmin = 7.9024e-32
vernier = 0.00393634
Gmin = 7.83275e-32
vernier = 0.00524846
vernier = 0.00262423
vernier = 0.00349897
Gmin = 7.78666e-32
vernier = 0.00466529
vernier = 0.00622039
Gmin = 7.70016e-32
vernier = 0.00311019
vernier = 0.0015551
vernier = 0.00207346
Gmin = 7.6852e-32
vernier = 0.00276462
vernier = 0.00368615
Gmin = 7.63448e-32
vernier = 0.00491487
vernier = 0.00245743
Gmin = 7.58541e-32
vernier = 0.00327658
vernier = 0.00436877
Gmin = 7.52253e-32
vernier = 0.00582503
vernier = 0.00291251
vernier = 0.00145626
Gmin = 7.48158e-32
vernier = 0.00194167
vernier = 0.0025889
Gmin = 7.44476e-32
vernier = 0.00345186
Gmin = 7.38719e-32
vernier = 0.00460249
vernier = 0.00613665
vernier = 0.00306832
Gmin = 7.32515e-32
vernier = 0.0040911
vernier = 0.00545479
Gmin = 7.25374e-32
vernier = 0.0027274
vernier = 0.00363653
Gmin = 7.21265e-32
vernier = 0.0048487
vernier = 0.00646494
vernier = 0.00323247
Gmin = 7.14741e-32
vernier = 0.00161623
vernier = 0.00215498
Gmin = 7.11764e-32
vernier = 0.0028733
vernier = 0.00383107
Gmin = 7.06587e-32
vernier = 0.00510809
vernier = 0.00255405
vernier = 0.00127702
Gmin = 7.03213e-32
vernier = 0.0017027
vernier = 0.00227026
Gmin = 7.00177e-32
vernier = 0.00302702
Gmin = 6.95426e-32
vernier = 0.00403602
vernier = 0.00538136
vernier = 0.00269068
vernier = 0.00134534
Gmin = 6.90998e-32
vernier = 0.00179379
vernier = 0.000896893
Gmin = 6.89451e-32
vernier = 0.00119586
vernier = 0.00159448
Gmin = 6.87239e-32
vernier = 0.00212597
vernier = 0.00283462
Gmin = 6.83748e-32
vernier = 0.00377949
Gmin = 6.78121e-32
vernier = 0.00503932
vernier = 0.00251966
vernier = 0.00335955
Gmin = 6.74218e-32
vernier = 0.0044794
Gmin = 6.6746e-32
vernier = 0.00597253
vernier = 0.00298626
vernier = 0.00398168
Gmin = 6.62993e-32
vernier = 0.00530891
vernier = 0.00265446
Gmin = 6.58828e-32
vernier = 0.00353927
vernier = 0.00471903
Gmin = 6.52257e-32
vernier = 0.00629204
vernier = 0.00314602
vernier = 0.00157301
vernier = 0.000786505
Gmin = 6.5021e-32
vernier = 0.00104867
vernier = 0.00139823
Gmin = 6.4838e-32
vernier = 0.00186431
vernier = 0.000932153
Gmin = 6.46946e-32
vernier = 0.00124287
vernier = 0.00165716
Gmin = 6.44672e-32
vernier = 0.00220955
vernier = 0.00294606
Gmin = 6.41063e-32
vernier = 0.00392808
Gmin = 6.35425e-32
vernier = 0.00523744
vernier = 0.00698325
vernier = 0.00349163
vernier = 0.00174581
vernier = 0.000872906
Gmin = 6.30456e-32
vernier = 0.00116387
Gmin = 6.28853e-32
vernier = 0.00155183
vernier = 0.00206911
Gmin = 6.26236e-32
vernier = 0.00275881
vernier = 0.00367842
Gmin = 6.22112e-32
vernier = 0.00490455
vernier = 0.00245228
vernier = 0.00122614
Gmin = 6.1888e-32
vernier = 0.00163485
vernier = 0.0021798
Gmin = 6.16461e-32
vernier = 0.0029064
Gmin = 6.12556e-32
vernier = 0.0038752
vernier = 0.00516693
Gmin = 6.06212e-32
vernier = 0.00688924
vernier = 0.00344462
vernier = 0.00172231
Gmin = 6.0283e-32
vernier = 0.00229641
vernier = 0.00306188
Gmin = 5.99123e-32
vernier = 0.00408251
vernier = 0.00544334
Gmin = 5.93294e-32
vernier = 0.00272167
vernier = 0.00362889
Gmin = 5.89941e-32
vernier = 0.00483852
vernier = 0.00645136
vernier = 0.00322568
Gmin = 5.84616e-32
vernier = 0.00161284
vernier = 0.00215045
Gmin = 5.82186e-32
vernier = 0.00286727
vernier = 0.00382303
Gmin = 5.7796e-32
vernier = 0.00509737
vernier = 0.00254868
vernier = 0.00127434
Gmin = 5.75206e-32
vernier = 0.00169912
vernier = 0.0022655
Gmin = 5.72728e-32
vernier = 0.00302066
Gmin = 5.6885e-32
vernier = 0.00402755
vernier = 0.00537006
vernier = 0.00268503
Gmin = 5.64667e-32
vernier = 0.00358004
vernier = 0.00477339
Gmin = 5.59846e-32
vernier = 0.00636451
vernier = 0.00318226
vernier = 0.00159113
Gmin = 5.56075e-32
vernier = 0.0021215
vernier = 0.00282867
Gmin = 5.53257e-32
vernier = 0.00377156
Gmin = 5.48713e-32
vernier = 0.00502875
vernier = 0.00251437
vernier = 0.0033525
Gmin = 5.45561e-32
vernier = 0.00446999
Gmin = 5.40105e-32
vernier = 0.00595999
vernier = 0.00298
vernier = 0.00397333
Gmin = 5.36497e-32
vernier = 0.00529777
vernier = 0.00264888
vernier = 0.00132444
Gmin = 5.34194e-32
vernier = 0.00176592
vernier = 0.00235456
Gmin = 5.31665e-32
vernier = 0.00313941
vernier = 0.00418589
Gmin = 5.27683e-32
vernier = 0.00558118
vernier = 0.00279059
vernier = 0.00139529
Gmin = 5.24564e-32
vernier = 0.00186039
vernier = 0.000930196
Gmin = 5.23407e-32
vernier = 0.00124026
vernier = 0.00165368
Gmin = 5.21571e-32
vernier = 0.00220491
vernier = 0.00293988
Gmin = 5.18657e-32
vernier = 0.00391983
Gmin = 5.14105e-32
vernier = 0.00522644
vernier = 0.00261322
vernier = 0.00130661
vernier = 0.00174215
Gmin = 5.12819e-32
vernier = 0.00232286
Gmin = 5.10147e-32
vernier = 0.00309715
vernier = 0.00412953
Gmin = 5.05692e-32
vernier = 0.00550604
vernier = 0.00275302
vernier = 0.00137651
Gmin = 5.03782e-32
vernier = 0.00183535
vernier = 0.000917673
vernier = 0.00122356
Gmin = 5.02743e-32
vernier = 0.00163142
vernier = 0.00217522
Gmin = 5.00782e-32
vernier = 0.0029003
Gmin = 4.97616e-32
vernier = 0.00386706
vernier = 0.00515608
vernier = 0.00257804
vernier = 0.00128902
Gmin = 4.94381e-32
vernier = 0.00171869
Gmin = 4.92526e-32
vernier = 0.00229159
vernier = 0.00305545
Gmin = 4.89503e-32
vernier = 0.00407394
vernier = 0.00543192
Gmin = 4.84751e-32
vernier = 0.00271596
vernier = 0.00362128
Gmin = 4.82016e-32
vernier = 0.00482837
vernier = 0.00643782
vernier = 0.00321891
Gmin = 4.77675e-32
vernier = 0.00160946
vernier = 0.00214594
Gmin = 4.75693e-32
vernier = 0.00286125
vernier = 0.003815
Gmin = 4.72248e-32
vernier = 0.00508667
vernier = 0.00254333
Gmin = 4.69256e-32
vernier = 0.00339111
vernier = 0.00452148
Gmin = 4.65001e-32
vernier = 0.00602864
vernier = 0.00301432
vernier = 0.00150716
Gmin = 4.62729e-32
vernier = 0.00200955
vernier = 0.00267939
Gmin = 4.60238e-32
vernier = 0.00357252
vernier = 0.00476337
Gmin = 4.56317e-32
vernier = 0.00635115
vernier = 0.00317558
vernier = 0.00158779
Gmin = 4.5325e-32
vernier = 0.00211705
vernier = 0.00282273
Gmin = 4.50957e-32
vernier = 0.00376364
Gmin = 4.47261e-32
vernier = 0.00501819
vernier = 0.00250909
vernier = 0.00334546
Gmin = 4.44698e-32
vernier = 0.00446061
Gmin = 4.40259e-32
vernier = 0.00594748
vernier = 0.00297374
vernier = 0.00396499
Gmin = 4.37325e-32
vernier = 0.00528665
vernier = 0.00704886
Gmin = 4.31824e-32
vernier = 0.00352443
vernier = 0.00176221
vernier = 0.00234962
Gmin = 4.30874e-32
vernier = 0.00313282
vernier = 0.0041771
Gmin = 4.27653e-32
vernier = 0.00556946
vernier = 0.00278473
vernier = 0.00139237
Gmin = 4.25131e-32
vernier = 0.00185649
vernier = 0.000928244
Gmin = 4.24195e-32
vernier = 0.00123766
vernier = 0.00165021
Gmin = 4.2271e-32
vernier = 0.00220028
vernier = 0.00293371
Gmin = 4.20354e-32
vernier = 0.00391161
Gmin = 4.16672e-32
vernier = 0.00521547
vernier = 0.00695396
vernier = 0.00347698
Gmin = 4.12709e-32
vernier = 0.00463597
vernier = 0.0061813
Gmin = 4.08153e-32
vernier = 0.00309065
vernier = 0.00154532
vernier = 0.00206043
Gmin = 4.07365e-32
vernier = 0.00274724
vernier = 0.00366299
Gmin = 4.04694e-32
vernier = 0.00488398
Gmin = 4.00396e-32
vernier = 0.00651198
vernier = 0.00325599
vernier = 0.00434132
Gmin = 3.97421e-32
vernier = 0.00578842
vernier = 0.00289421
Gmin = 3.94557e-32
vernier = 0.00385895
vernier = 0.00514526
vernier = 0.00257263
Gmin = 3.91745e-32
vernier = 0.00343017
Gmin = 3.88734e-32
vernier = 0.00457356
vernier = 0.00609808
vernier = 0.00304904
Gmin = 3.8549e-32
vernier = 0.00406539
vernier = 0.00542051
Gmin = 3.81756e-32
vernier = 0.00271026
vernier = 0.00361367
Gmin = 3.79607e-32
vernier = 0.00481823
vernier = 0.00642431
vernier = 0.00321215
Gmin = 3.76195e-32
vernier = 0.00160608
vernier = 0.00214144
Gmin = 3.74638e-32
vernier = 0.00285525
vernier = 0.00380699
Gmin = 3.7193e-32
vernier = 0.00507599
Gmin = 3.67708e-32
vernier = 0.00676799
vernier = 0.00338399
vernier = 0.001692
vernier = 0.00225599
Gmin = 3.66518e-32
vernier = 0.00300799
Gmin = 3.64047e-32
vernier = 0.00401066
vernier = 0.00534754
vernier = 0.00267377
Gmin = 3.61381e-32
vernier = 0.00356503
vernier = 0.00475337
Gmin = 3.58309e-32
vernier = 0.00633782
vernier = 0.00316891
vernier = 0.00158445
Gmin = 3.55906e-32
vernier = 0.00211261
vernier = 0.00281681
Gmin = 3.54109e-32
vernier = 0.00375574
Gmin = 3.51213e-32
vernier = 0.00500766
vernier = 0.00250383
vernier = 0.00333844
Gmin = 3.49204e-32
vernier = 0.00445125
Gmin = 3.45726e-32
vernier = 0.00593499
vernier = 0.0029675
vernier = 0.00148375
vernier = 0.00197833
Gmin = 3.44745e-32
vernier = 0.00263777
Gmin = 3.42705e-32
vernier = 0.00351703
vernier = 0.00468937
Gmin = 3.39309e-32
vernier = 0.0062525
vernier = 0.00312625
vernier = 0.00156312
Gmin = 3.37854e-32
vernier = 0.00208416
vernier = 0.00277889
Gmin = 3.35865e-32
vernier = 0.00370518
vernier = 0.00494024
vernier = 0.00247012
Gmin = 3.33541e-32
vernier = 0.00329349
Gmin = 3.31148e-32
vernier = 0.00439132
vernier = 0.00585509
vernier = 0.00292755
Gmin = 3.28464e-32
vernier = 0.00390339
Gmin = 3.25593e-32
vernier = 0.00520453
vernier = 0.00260226
vernier = 0.00130113
vernier = 0.00173484
Gmin = 3.24782e-32
vernier = 0.00231312
Gmin = 3.23097e-32
vernier = 0.00308416
vernier = 0.00411221
Gmin = 3.20287e-32
vernier = 0.00548295
vernier = 0.00274147
vernier = 0.00137074
Gmin = 3.19082e-32
vernier = 0.00182765
vernier = 0.000913825
vernier = 0.00121843
Gmin = 3.18427e-32
vernier = 0.00162458
vernier = 0.0021661
Gmin = 3.1719e-32
vernier = 0.00288813
Gmin = 3.15193e-32
vernier = 0.00385085
vernier = 0.00513446
vernier = 0.00256723
Gmin = 3.12952e-32
vernier = 0.00342297
Gmin = 3.10552e-32
vernier = 0.00456396
vernier = 0.00608528
vernier = 0.00304264
Gmin = 3.07965e-32
vernier = 0.00405685
vernier = 0.00540914
Gmin = 3.04988e-32
vernier = 0.00270457
vernier = 0.00360609
Gmin = 3.03275e-32
vernier = 0.00480812
vernier = 0.00641082
vernier = 0.00320541
Gmin = 3.00555e-32
vernier = 0.00160271
vernier = 0.00213694
Gmin = 2.99313e-32
vernier = 0.00284925
vernier = 0.003799
Gmin = 2.97154e-32
vernier = 0.00506534
vernier = 0.00253267
Gmin = 2.95279e-32
vernier = 0.00337689
vernier = 0.00450252
Gmin = 2.92613e-32
vernier = 0.00600336
vernier = 0.00300168
Gmin = 2.90535e-32
vernier = 0.00400224
vernier = 0.00533631
vernier = 0.00266816
Gmin = 2.88412e-32
vernier = 0.00355754
vernier = 0.00474339
Gmin = 2.85966e-32
vernier = 0.00632452
vernier = 0.00316226
vernier = 0.00158113
Gmin = 2.84052e-32
vernier = 0.00210817
vernier = 0.00281089
Gmin = 2.82621e-32
vernier = 0.00374786
Gmin = 2.80314e-32
vernier = 0.00499714
vernier = 0.00249857
vernier = 0.00333143
Gmin = 2.78714e-32
vernier = 0.0044419
Gmin = 2.75944e-32
vernier = 0.00592254
vernier = 0.00296127
vernier = 0.00394836
Gmin = 2.74112e-32
vernier = 0.00526447
vernier = 0.00263224
Gmin = 2.72405e-32
vernier = 0.00350965
vernier = 0.00467953
Gmin = 2.69711e-32
vernier = 0.00623937
vernier = 0.00311969
vernier = 0.00155984
Gmin = 2.68557e-32
vernier = 0.00207979
vernier = 0.00277305
Gmin = 2.66979e-32
vernier = 0.0036974
vernier = 0.00492987
Gmin = 2.64483e-32
vernier = 0.00657316
vernier = 0.00328658
Gmin = 2.6232e-32
vernier = 0.0043821
vernier = 0.0058428
vernier = 0.0029214
vernier = 0.0014607
Gmin = 2.60389e-32
vernier = 0.00073035
vernier = 0.0009738
Gmin = 2.59898e-32
vernier = 0.0012984
vernier = 0.0017312
vernier = 0.0008656
Gmin = 2.59266e-32
vernier = 0.00115413
Gmin = 2.58612e-32
vernier = 0.00153884
vernier = 0.00205179
Gmin = 2.57545e-32
vernier = 0.00273572
vernier = 0.00364763
Gmin = 2.55863e-32
vernier = 0.0048635
Gmin = 2.53157e-32
vernier = 0.00648467
vernier = 0.00324233
vernier = 0.00432311
Gmin = 2.51284e-32
vernier = 0.00576414
vernier = 0.00288207
Gmin = 2.49481e-32
vernier = 0.00384276
vernier = 0.00512368
vernier = 0.00256184
vernier = 0.00128092
Gmin = 2.47869e-32
vernier = 0.00170789
Gmin = 2.46945e-32
vernier = 0.00227719
vernier = 0.00303625
Gmin = 2.45439e-32
vernier = 0.00404834
vernier = 0.00539778
Gmin = 2.43071e-32
vernier = 0.00269889
vernier = 0.00359852
Gmin = 2.41708e-32
vernier = 0.00479802
vernier = 0.00639736
vernier = 0.00319868
Gmin = 2.39545e-32
vernier = 0.00159934
vernier = 0.00213245
Gmin = 2.38557e-32
vernier = 0.00284327
vernier = 0.00379103
Gmin = 2.3684e-32
vernier = 0.0050547
vernier = 0.00252735
Gmin = 2.35349e-32
vernier = 0.0033698
vernier = 0.00449307
Gmin = 2.33228e-32
vernier = 0.00599075
vernier = 0.00299538
vernier = 0.00149769
Gmin = 2.32096e-32
vernier = 0.00199692
vernier = 0.00266256
Gmin = 2.30854e-32
vernier = 0.00355007
vernier = 0.00473343
Gmin = 2.289e-32
vernier = 0.00631124
vernier = 0.00315562
vernier = 0.00157781
Gmin = 2.27371e-32
vernier = 0.00210375
vernier = 0.00280499
Gmin = 2.26228e-32
vernier = 0.00373999
Gmin = 2.24386e-32
vernier = 0.00498665
vernier = 0.00249333
vernier = 0.00332443
Gmin = 2.23108e-32
vernier = 0.00443258
Gmin = 2.20895e-32
vernier = 0.0059101
vernier = 0.00295505
vernier = 0.00147753
vernier = 0.00197003
Gmin = 2.2027e-32
vernier = 0.00262671
Gmin = 2.18973e-32
vernier = 0.00350228
vernier = 0.00466971
Gmin = 2.16812e-32
vernier = 0.00622627
vernier = 0.00311314
vernier = 0.00155657
Gmin = 2.15886e-32
vernier = 0.00207542
vernier = 0.00276723
Gmin = 2.14621e-32
vernier = 0.00368964
vernier = 0.00491952
vernier = 0.00245976
Gmin = 2.13142e-32
vernier = 0.00122988
vernier = 0.00163984
Gmin = 2.12466e-32
vernier = 0.00218645
vernier = 0.00291527
Gmin = 2.11288e-32
vernier = 0.00388702
Gmin = 2.09449e-32
vernier = 0.0051827
vernier = 0.00259135
vernier = 0.00129567
vernier = 0.00172757
Gmin = 2.0893e-32
vernier = 0.00230342
Gmin = 2.0785e-32
vernier = 0.00307123
vernier = 0.00409497
Gmin = 2.0605e-32
vernier = 0.00545995
vernier = 0.00272998
vernier = 0.00363997
Gmin = 2.04742e-32
vernier = 0.00485329
Gmin = 2.02581e-32
vernier = 0.00647105
vernier = 0.00323553
vernier = 0.00161776
vernier = 0.00215702
Gmin = 2.01818e-32
vernier = 0.00287602
Gmin = 2.00553e-32
vernier = 0.00383469
vernier = 0.00511293
Gmin = 1.98498e-32
vernier = 0.00681723
vernier = 0.00340862
vernier = 0.00170431
Gmin = 1.97402e-32
vernier = 0.00227241
vernier = 0.00302988
Gmin = 1.96201e-32
vernier = 0.00403984
vernier = 0.00538645
Gmin = 1.94312e-32
vernier = 0.00269322
vernier = 0.00359097
Gmin = 1.93225e-32
vernier = 0.00478795
vernier = 0.00638394
vernier = 0.00319197
Gmin = 1.91499e-32
vernier = 0.00159598
vernier = 0.00212798
Gmin = 1.90711e-32
vernier = 0.0028373
vernier = 0.00378307
Gmin = 1.89341e-32
vernier = 0.00504409
vernier = 0.00252205
Gmin = 1.88152e-32
vernier = 0.00336273
vernier = 0.00448364
Gmin = 1.8646e-32
vernier = 0.00597818
vernier = 0.00298909
vernier = 0.00149454
Gmin = 1.85557e-32
vernier = 0.00199273
vernier = 0.00265697
Gmin = 1.84566e-32
vernier = 0.00354262
vernier = 0.00472349
Gmin = 1.83007e-32
vernier = 0.00629799
vernier = 0.003149
Gmin = 1.81501e-32
vernier = 0.00419866
vernier = 0.00559821
vernier = 0.00279911
Gmin = 1.80079e-32
vernier = 0.00139955
vernier = 0.00186607
vernier = 0.000933035
Gmin = 1.7968e-32
vernier = 0.00124405
vernier = 0.00165873
Gmin = 1.79145e-32
vernier = 0.00221164
Gmin = 1.78281e-32
vernier = 0.00294885
vernier = 0.0039318
Gmin = 1.76874e-32
vernier = 0.00524239
vernier = 0.0026212
Gmin = 1.75777e-32
vernier = 0.00349493
vernier = 0.0046599
Gmin = 1.74046e-32
vernier = 0.0062132
vernier = 0.0031066
vernier = 0.0015533
Gmin = 1.73304e-32
vernier = 0.00207107
vernier = 0.00276142
Gmin = 1.72291e-32
vernier = 0.0036819
vernier = 0.00490919
vernier = 0.0024546
Gmin = 1.71106e-32
vernier = 0.00327279
Gmin = 1.69886e-32
vernier = 0.00436373
vernier = 0.0058183
vernier = 0.00290915
Gmin = 1.68517e-32
vernier = 0.00387886
Gmin = 1.67054e-32
vernier = 0.00517182
vernier = 0.00258591
vernier = 0.00344788
Gmin = 1.66085e-32
vernier = 0.00459717
vernier = 0.00612956
Gmin = 1.64267e-32
vernier = 0.00306478
vernier = 0.00408637
Gmin = 1.63222e-32
vernier = 0.00544849
vernier = 0.00272425
vernier = 0.00363233
Gmin = 1.62188e-32
vernier = 0.0048431
Gmin = 1.60479e-32
vernier = 0.00645747
vernier = 0.00322873
vernier = 0.00161437
vernier = 0.00215249
Gmin = 1.59876e-32
vernier = 0.00286998
Gmin = 1.58876e-32
vernier = 0.00382665
vernier = 0.00510219
vernier = 0.0025511
Gmin = 0
Gmin stepping aborted per request.

Starting source stepping with srcstepmethod=0
Source Step = 3.0303%
Source Step = 33.3333%
Source Step = 45.0758%
Source Step = 46.9697%
Source Step = 48.8636%
Source Step = 50.7576%
Source Step = 52.6515%
vernier = 0.09375
Source Step = 54.6402%
Source Step = 57.4811%
Source Step = 58.3333%
Source Step = 59.0436%
Source Step = 59.7538%
Source Step = 60.464%
Source Step = 61.1742%
vernier = 0.0351562
Source Step = 62.133%
Source Step = 63.1984%
Source Step = 64.2637%
Source Step = 65.3291%
Source Step = 66.3944%
vernier = 0.0527344
Source Step = 67.7794%
Source Step = 69.3774%
Source Step = 70.9754%
Source Step = 72.5734%
Source Step = 74.1714%
vernier = 0.0791016
Source Step = 76.1689%
Source Step = 78.5659%
Source Step = 80.9629%
Source Step = 83.36%
Source Step = 85.757%
vernier = 0.118652
Source Step = 88.6334%
Source Step = 92.2289%
Source Step = 95.8245%
Source Step = 99.42%
Source stepping succeeded in finding the operating point.


Date: Sat Jun 17 21:52:54 2023
Total elapsed time: 34.969 seconds.

tnom = 27
temp = 27
method = trap
totiter = 865692
traniter = 0
tranpoints = 0
accept = 0
rejected = 0
matrix size = 68
fillins = 204
solver = Normal
Avg thread counts: 1.0/0.0/1.0/1.0
Matrix Compiler1:     887 opcodes
Matrix Compiler2: off  [0.9]/1.5/1.1

