Circuit: * C:\Users\mjong\Documents\Projekte\Radar_Amp\Simulation\Input_Stage_10kHz.asc

Early termination of direct N-R iteration.
Direct Newton iteration failed to find .op point.  (Use ".option noopiter" to skip.)
Starting Gmin stepping
Gmin = 10
Gmin = 1.07374
Gmin = 0.115292
Gmin = 0.0123794
Gmin = 0.00132923
Gmin = 0.000142725
Gmin = 1.5325e-05
vernier = 0.5
vernier = 0.25
vernier = 0.125
vernier = 0.0625
vernier = 0.03125
vernier = 0.015625
vernier = 0.0078125
vernier = 0.00390625
vernier = 0.00195312
Gmin = 1.5325e-05
vernier = 0.000976562
vernier = 0.000488281
Gmin = 0
Gmin stepping failed

Starting source stepping with srcstepmethod=0
Source Step = 3.0303%
Source Step = 25.7576%
Source Step = 33.3333%
Source Step = 40.9091%
vernier = 0.0625
Source Step = 42.0455%
Source Step = 43.9394%
Source Step = 45.8333%
Source Step = 47.7273%
Source Step = 49.6212%
vernier = 0.09375
Source Step = 52.3674%
Source Step = 55.2083%
Source Step = 58.0492%
Source Step = 60.8902%
Source Step = 63.7311%
vernier = 0.140625
Source Step = 67.7083%
Source Step = 71.9697%
Source Step = 76.2311%
Source Step = 80.4924%
Source Step = 84.7538%
vernier = 0.210938
Source Step = 90.5066%
Source Step = 96.8987%
Source stepping succeeded in finding the operating point.


Date: Sat Jun 17 22:01:58 2023
Total elapsed time: 0.429 seconds.

tnom = 27
temp = 27
method = trap
totiter = 3009
traniter = 0
tranpoints = 0
accept = 0
rejected = 0
matrix size = 59
fillins = 213
solver = Normal
Avg thread counts: 1.9/0.0/6.2/1.3
Matrix Compiler1:    1080 opcodes
Matrix Compiler2: off  [0.6]/1.2/1.9

