Circuit: * C:\Users\mjong\Documents\Projekte\Radar_Amp\Simulation\Input_Stage_10kHz_v2.asc

Early termination of direct N-R iteration.
Direct Newton iteration failed to find .op point.  (Use ".option noopiter" to skip.)
Starting Gmin stepping
Gmin = 10
Gmin = 1.07374
Gmin = 0.115292
Gmin = 0.0123794
Gmin = 0.00132923
Gmin = 0.000142725
Gmin = 1.5325e-05
vernier = 0.5
vernier = 0.25
vernier = 0.125
vernier = 0.0625
vernier = 0.03125
vernier = 0.015625
vernier = 0.0078125
vernier = 0.00390625
vernier = 0.00195312
Gmin = 1.5325e-05
vernier = 0.000976562
vernier = 0.000488281
Gmin = 0
Gmin stepping failed

Starting source stepping with srcstepmethod=0
Source Step = 3.0303%
Source Step = 23.4848%
Source Step = 31.0606%
Source Step = 38.6364%
Source Step = 46.2121%
Source Step = 53.7879%
vernier = 0.375
Source Step = 62.1212%
Source Step = 73.4848%
Source Step = 84.8485%
Source Step = 96.2121%
Source stepping succeeded in finding the operating point.


Date: Wed Jun 21 18:16:51 2023
Total elapsed time: 0.328 seconds.

tnom = 27
temp = 27
method = trap
totiter = 2526
traniter = 0
tranpoints = 0
accept = 0
rejected = 0
matrix size = 61
fillins = 213
solver = Normal
Avg thread counts: 2.1/0.0/7.3/1.9
Matrix Compiler1:    1091 opcodes
Matrix Compiler2: off  [0.6]/1.5/1.3

