Circuit: * C:\Users\mjong\Documents\Projekte\Radar_Amp\Simulation\LC-Filter.asc

Direct Newton iteration for .op point succeeded.

Date: Fri Jun 23 09:31:46 2023
Total elapsed time: 0.040 seconds.

tnom = 27
temp = 27
method = trap
totiter = 3
traniter = 0
tranpoints = 0
accept = 0
rejected = 0
matrix size = 4
fillins = 0
solver = Normal
Avg thread counts: 8.0/0.0/8.0/6.2
Matrix Compiler1:       7 opcodes
Matrix Compiler2: 242 bytes object code size
