Circuit: * C:\Users\mjong\Documents\Projekte\Radar_Amp\Simulation\LC-Filter_2.asc

Direct Newton iteration for .op point succeeded.

Date: Tue Jun 27 12:02:51 2023
Total elapsed time: 0.040 seconds.

tnom = 27
temp = 27
method = trap
totiter = 3
traniter = 0
tranpoints = 0
accept = 0
rejected = 0
matrix size = 6
fillins = 2
solver = Normal
Avg thread counts: 8.0/0.0/8.0/6.2
Matrix Compiler1:      20 opcodes
Matrix Compiler2: 462 bytes object code size
