Circuit: * C:\Users\mjong\Documents\Projekte\Radar_Amp\Simulation\VGA_Potentiometer.asc

Direct Newton iteration for .op point succeeded.

Date: Wed Jun 21 18:32:42 2023
Total elapsed time: 0.078 seconds.

tnom = 27
temp = 27
method = trap
totiter = 5
traniter = 0
tranpoints = 0
accept = 0
rejected = 0
matrix size = 20
fillins = 20
solver = Normal
Avg thread counts: 8.0/0.0/8.0/5.6
Matrix Compiler1:     102 opcodes
Matrix Compiler2: 2.22 KB object code size
